sim-profile: SimpleScalar/PISA Tool Set version 3.0 of March, 2023.
Copyright (c) 1994-2003 by Todd M. Austin, Ph.D. and SimpleScalar, LLC.
All Rights Reserved. This version of SimpleScalar is licensed for academic
non-commercial use.  No portion of this work may be used by any commercial
entity, or for any commercial purpose, without the prior written permission
of SimpleScalar, LLC (info@simplescalar.com).

sim: command line: ./sim-profile -all true -redir:sim sim.out -max:inst 100000000 tests/bin.little/test-math 

sim: simulation started @ Thu Jun 19 01:01:51 2025, options follow:

sim-profile: This simulator implements a functional simulator with
profiling support.  Run with the `-h' flag to see profiling options
available.

# -config                     # load configuration from a file
# -dumpconfig                 # dump configuration to a file
# -h                    false # print help message    
# -v                    false # verbose operation     
# -d                    false # enable debug message  
# -i                    false # start in Dlite debugger
-seed                       1 # random number generator seed (0 for timer seed)
# -q                    false # initialize and terminate immediately
# -chkpt               <null> # restore EIO trace execution from <fname>
# -redir:sim          sim.out # redirect simulator output to file (non-interactive only)
# -redir:prog          <null> # redirect simulated program output to file
-nice                       0 # simulator scheduling priority
-max:inst           100000000 # maximum number of inst's to execute
-all                     true # enable all profile options
-iclass                  true # enable instruction class profiling
-iprof                   true # enable instruction profiling
-brprof                  true # enable branch instruction profiling
-amprof                  true # enable address mode profiling
-segprof                 true # enable load/store address segment profiling
-tsymprof                true # enable text symbol profiling
-taddrprof               true # enable text address profiling
-dsymprof                true # enable data symbol profiling
-internal               false # include compiler-internal symbols during symbol profiling
# -pcstat              <null> # profile stat(s) against text addr's (mult uses ok)

sim: ** starting functional simulation **

sim: ** simulation statistics **
sim_num_insn                 213688 # total number of instructions executed
sim_num_refs                  56897 # total number of loads and stores executed
sim_elapsed_time                  1 # total simulation time in seconds
sim_inst_rate           213688.0000 # simulation speed (in insts/sec)

sim_inst_class_prof    # instruction class profile
sim_inst_class_prof.array_size = 7
sim_inst_class_prof.bucket_size = 1
sim_inst_class_prof.count = 7
sim_inst_class_prof.total = 213687
sim_inst_class_prof.imin = 0
sim_inst_class_prof.imax = 7
sim_inst_class_prof.average = 30526.7143
sim_inst_class_prof.std_dev = 40089.1614
sim_inst_class_prof.overflows = 0
# pdf == prob dist fn, cdf == cumulative dist fn
#          index      count    pdf 
sim_inst_class_prof.start_dist
load                  34103  15.96 
store                 22794  10.67 
uncond branch          9008   4.22 
cond branch           29583  13.84 
int computation      116291  54.42 
fp computation         1879   0.88 
trap                     29   0.01 
sim_inst_class_prof.end_dist


sim_inst_prof          # instruction profile
sim_inst_prof.array_size = 119
sim_inst_prof.bucket_size = 1
sim_inst_prof.count = 119
sim_inst_prof.total = 213687
sim_inst_prof.imin = 0
sim_inst_prof.imax = 119
sim_inst_prof.average = 1795.6891
sim_inst_prof.std_dev = 5433.5829
sim_inst_prof.overflows = 0
# pdf == prob dist fn, cdf == cumulative dist fn
#          index      count    pdf 
sim_inst_prof.start_dist
nop                      26   0.01 
j        J             1961   0.92 
jal      J             3421   1.60 
jr       s             3543   1.66 
jalr     d,s             83   0.04 
beq      s,t,j        10617   4.97 
bne      s,t,j        15338   7.18 
blez     s,j            229   0.11 
bgtz     s,j             90   0.04 
bltz     s,j           1653   0.77 
bgez     s,j           1370   0.64 
bc1f     j              165   0.08 
bc1t     j              121   0.06 
lb       t,o(b)         660   0.31 
lbu      t,o(b)        3602   1.69 
lh       t,o(b)           7   0.00 
lhu      t,o(b)          81   0.04 
lw       t,o(b)       27967  13.09 
dlw      t,o(b)           3   0.00 
l.s      T,o(b)        1762   0.82 
l.d      T,o(b)          17   0.01 
lwl      t,o(b)           2   0.00 
lwr      t,o(b)           2   0.00 
sb       t,o(b)        3033   1.42 
sh       t,o(b)           0   0.00 
sw       t,o(b)       18898   8.84 
dsw      t,o(b)           5   0.00 
dsz      o(b)             0   0.00 
s.s      T,o(b)         839   0.39 
s.d      T,o(b)          15   0.01 
swl      t,o(b)           2   0.00 
swr      t,o(b)           2   0.00 
lb       t,(b+d)          0   0.00 
lbu      t,(b+d)          0   0.00 
lh       t,(b+d)          0   0.00 
lhu      t,(b+d)          0   0.00 
lw       t,(b+d)          0   0.00 
dlw      t,(b+d)          0   0.00 
l.s      T,(b+d)          0   0.00 
l.d      T,(b+d)          0   0.00 
sb       t,(b+d)          0   0.00 
sh       t,(b+d)          0   0.00 
sw       t,(b+d)          0   0.00 
dsw      t,(b+d)          0   0.00 
dsz      (b+d)            0   0.00 
s.s      T,(b+d)          0   0.00 
s.d      T,(b+d)          0   0.00 
l.s.r2   T,(b+d)          0   0.00 
s.s.r2   T,(b+d)          0   0.00 
lw.r2    t,(b+d)          0   0.00 
sw.r2    t,(b+d)          0   0.00 
add      d,s,t            0   0.00 
addi     t,s,i            0   0.00 
addu     d,s,t        27492  12.87 
addiu    t,s,i        36817  17.23 
sub      d,s,t            0   0.00 
subu     d,s,t         6654   3.11 
mult     s,t            773   0.36 
multu    s,t           2202   1.03 
div      s,t              4   0.00 
divu     s,t            766   0.36 
mfhi     d             2946   1.38 
mthi     s                0   0.00 
mflo     d             3745   1.75 
mtlo     s                0   0.00 
and      d,s,t          686   0.32 
andi     t,s,u         4343   2.03 
or       d,s,t         2018   0.94 
ori      t,s,u         1577   0.74 
xor      d,s,t          203   0.09 
xori     t,s,u          265   0.12 
nor      d,s,t          505   0.24 
sll      d,t,H         7162   3.35 
sllv     d,t,s         2134   1.00 
srl      d,t,H          900   0.42 
srlv     d,t,s         2468   1.15 
sra      d,t,H          273   0.13 
srav     d,t,s            4   0.00 
slt      d,s,t         1072   0.50 
slti     t,s,i          542   0.25 
sltu     d,s,t         6248   2.92 
sltiu    t,s,i         1383   0.65 
add.s    D,S,T            0   0.00 
add.d    D,S,T          358   0.17 
sub.s    D,S,T            0   0.00 
sub.d    D,S,T          195   0.09 
mul.s    D,S,T            0   0.00 
mul.d    D,S,T          406   0.19 
div.s    D,S,T            0   0.00 
div.d    D,S,T           34   0.02 
abs.s    D,S              0   0.00 
abs.d    D,S              1   0.00 
mov.s    D,S              0   0.00 
mov.d    D,S            479   0.22 
neg.s    D,S              0   0.00 
neg.d    D,S              4   0.00 
cvt.s.d  D,S              0   0.00 
cvt.s.w  D,S              0   0.00 
cvt.d.s  D,S              0   0.00 
cvt.d.w  D,S             74   0.03 
cvt.w.s  D,S              0   0.00 
cvt.w.d  D,S             41   0.02 
c.eq.s   S,T              0   0.00 
c.eq.d   S,T            162   0.08 
c.lt.s   S,T              0   0.00 
c.lt.d   S,T             78   0.04 
c.le.s   S,T              0   0.00 
c.le.d   S,T             46   0.02 
sqrt.s   D,S              0   0.00 
sqrt.d   D,S              1   0.00 
syscall                  29   0.01 
break    B                0   0.00 
lui      t,U           2012   0.94 
mfc1     t,S            634   0.30 
dmfc1    t,S             19   0.01 
cfc1     t,S              0   0.00 
mtc1     t,S            418   0.20 
dmtc1    t,S              0   0.00 
ctc1     t,S              0   0.00 
sim_inst_prof.end_dist


sim_branch_prof        # branch instruction profile
sim_branch_prof.array_size = 6
sim_branch_prof.bucket_size = 1
sim_branch_prof.count = 6
sim_branch_prof.total = 38591
sim_branch_prof.imin = 0
sim_branch_prof.imax = 6
sim_branch_prof.average = 6431.8333
sim_branch_prof.std_dev = 11445.9732
sim_branch_prof.overflows = 0
# pdf == prob dist fn, cdf == cumulative dist fn
#          index      count    pdf 
sim_branch_prof.start_dist
uncond direct          1961   5.08 
cond direct           29583  76.66 
call direct            3421   8.86 
uncond indirect        3543   9.18 
cond indirect             0   0.00 
call indirect            83   0.22 
sim_branch_prof.end_dist


sim_addr_mode_prof     # addressing mode profile
sim_addr_mode_prof.array_size = 6
sim_addr_mode_prof.bucket_size = 1
sim_addr_mode_prof.count = 6
sim_addr_mode_prof.total = 56897
sim_addr_mode_prof.imin = 0
sim_addr_mode_prof.imax = 6
sim_addr_mode_prof.average = 9482.8333
sim_addr_mode_prof.std_dev = 12636.3091
sim_addr_mode_prof.overflows = 0
# pdf == prob dist fn, cdf == cumulative dist fn
#          index      count    pdf 
sim_addr_mode_prof.start_dist
(const)                 503   0.88 
(gp + const)           1298   2.28 
(sp + const)          16994  29.87 
(fp + const)           6376  11.21 
(reg + const)         31726  55.76 
(reg + reg)               0   0.00 
sim_addr_mode_prof.end_dist


sim_addr_seg_prof      # load/store address segment profile
sim_addr_seg_prof.array_size = 4
sim_addr_seg_prof.bucket_size = 1
sim_addr_seg_prof.count = 4
sim_addr_seg_prof.total = 56897
sim_addr_seg_prof.imin = 0
sim_addr_seg_prof.imax = 4
sim_addr_seg_prof.average = 14224.2500
sim_addr_seg_prof.std_dev = 19808.2167
sim_addr_seg_prof.overflows = 0
# pdf == prob dist fn, cdf == cumulative dist fn
#          index      count    pdf 
sim_addr_seg_prof.start_dist
data segment          10032  17.63 
heap segment           3588   6.31 
stack segment         43277  76.06 
text segment              0   0.00 
sim_addr_seg_prof.end_dist


sim_text_addr_prof     # text address profile
sim_text_addr_prof.count = 5653
sim_text_addr_prof.total = 213687
sim_text_addr_prof.imin = 0x400140
sim_text_addr_prof.imax = 0x4165d8
sim_text_addr_prof.average =  37.8006
sim_text_addr_prof.std_dev = 106.5955
sim_text_addr_prof.overflows = 0
# pdf == prob dist fn, cdf == cumulative dist fn
#          index      count    pdf 
sim_text_addr_prof.start_dist
0x400140 1 0.00
0x400148 1 0.00
0x400150 1 0.00
0x400158 1 0.00
0x400160 1 0.00
0x400168 1 0.00
0x400170 1 0.00
0x400178 1 0.00
0x400180 1 0.00
0x400188 1 0.00
0x400190 1 0.00
0x400198 1 0.00
0x4001a0 1 0.00
0x4001a8 1 0.00
0x4001b0 1 0.00
0x4001b8 1 0.00
0x4001c0 1 0.00
0x4001c8 1 0.00
0x4001d0 1 0.00
0x4001d8 1 0.00
0x4001e0 1 0.00
0x4001f0 1 0.00
0x4001f8 1 0.00
0x400200 1 0.00
0x400208 1 0.00
0x400210 1 0.00
0x400218 1 0.00
0x400220 1 0.00
0x400228 1 0.00
0x400230 1 0.00
0x400238 1 0.00
0x400240 1 0.00
0x400248 1 0.00
0x400250 1 0.00
0x400258 1 0.00
0x400260 1 0.00
0x400268 1 0.00
0x400270 1 0.00
0x400278 1 0.00
0x400280 1 0.00
0x400288 1 0.00
0x400290 1 0.00
0x400298 1 0.00
0x4002a0 1 0.00
0x4002a8 1 0.00
0x4002b0 1 0.00
0x4002b8 1 0.00
0x4002c0 1 0.00
0x4002c8 1 0.00
0x4002d0 1 0.00
0x4002d8 1 0.00
0x4002e0 1 0.00
0x4002e8 1 0.00
0x4002f0 1 0.00
0x4002f8 1 0.00
0x400300 1 0.00
0x400308 1 0.00
0x400310 1 0.00
0x400318 1 0.00
0x400320 1 0.00
0x400328 1 0.00
0x400330 1 0.00
0x400338 1 0.00
0x400340 1 0.00
0x400348 1 0.00
0x400350 1 0.00
0x400358 1 0.00
0x400360 1 0.00
0x400368 1 0.00
0x400370 1 0.00
0x400378 1 0.00
0x400380 1 0.00
0x400388 1 0.00
0x400390 1 0.00
0x400398 1 0.00
0x4003a0 1 0.00
0x4003a8 1 0.00
0x4003b0 1 0.00
0x4003b8 1 0.00
0x4003c0 1 0.00
0x4003c8 1 0.00
0x4003d0 1 0.00
0x4003d8 1 0.00
0x4003e0 1 0.00
0x4003e8 1 0.00
0x4003f0 1 0.00
0x4003f8 1 0.00
0x400400 1 0.00
0x400408 1 0.00
0x400410 1 0.00
0x400418 1 0.00
0x400420 1 0.00
0x400428 1 0.00
0x400430 1 0.00
0x400438 1 0.00
0x400440 1 0.00
0x400448 1 0.00
0x400450 1 0.00
0x400458 1 0.00
0x400460 1 0.00
0x400468 1 0.00
0x400470 1 0.00
0x400478 1 0.00
0x400480 1 0.00
0x400488 1 0.00
0x400490 1 0.00
0x400498 1 0.00
0x4004a0 1 0.00
0x4004a8 1 0.00
0x4004b0 1 0.00
0x4004b8 1 0.00
0x4004c0 1 0.00
0x4004c8 1 0.00
0x4004d0 1 0.00
0x4004d8 1 0.00
0x4004e0 1 0.00
0x4004e8 1 0.00
0x4004f0 1 0.00
0x4004f8 1 0.00
0x400500 1 0.00
0x400508 1 0.00
0x400510 1 0.00
0x400518 1 0.00
0x400520 1 0.00
0x400528 1 0.00
0x400530 1 0.00
0x400538 1 0.00
0x400540 1 0.00
0x400548 1 0.00
0x400550 1 0.00
0x400558 1 0.00
0x400560 1 0.00
0x400568 1 0.00
0x400570 1 0.00
0x400578 1 0.00
0x400580 1 0.00
0x400588 1 0.00
0x400590 1 0.00
0x400598 1 0.00
0x4005a0 1 0.00
0x4005a8 1 0.00
0x4005b0 1 0.00
0x4005b8 1 0.00
0x4005c0 1 0.00
0x4005c8 1 0.00
0x4005d0 1 0.00
0x4005d8 1 0.00
0x4005e0 1 0.00
0x4005e8 1 0.00
0x4005f0 1 0.00
0x4005f8 1 0.00
0x400600 1 0.00
0x400608 1 0.00
0x400610 1 0.00
0x400618 1 0.00
0x400620 1 0.00
0x400628 1 0.00
0x400630 1 0.00
0x400638 1 0.00
0x400640 1 0.00
0x400648 1 0.00
0x400650 1 0.00
0x400658 1 0.00
0x400660 1 0.00
0x400668 1 0.00
0x400670 1 0.00
0x400678 1 0.00
0x400680 1 0.00
0x400688 1 0.00
0x400690 1 0.00
0x400698 1 0.00
0x4006a0 1 0.00
0x4006a8 1 0.00
0x4006b0 1 0.00
0x4006b8 1 0.00
0x4006c0 1 0.00
0x4006c8 1 0.00
0x4006d0 1 0.00
0x4006d8 1 0.00
0x4006e0 1 0.00
0x4006e8 1 0.00
0x4006f0 1 0.00
0x4006f8 1 0.00
0x400700 1 0.00
0x400708 1 0.00
0x400710 1 0.00
0x400718 1 0.00
0x400720 1 0.00
0x400728 1 0.00
0x400730 1 0.00
0x400738 1 0.00
0x400740 1 0.00
0x400748 1 0.00
0x400750 1 0.00
0x400758 1 0.00
0x400760 1 0.00
0x400768 1 0.00
0x400770 1 0.00
0x400778 1 0.00
0x400780 1 0.00
0x400788 1 0.00
0x400790 1 0.00
0x400798 1 0.00
0x4007a0 1 0.00
0x4007b8 1 0.00
0x4007c0 1 0.00
0x4007c8 1 0.00
0x4007d0 1 0.00
0x4007d8 1 0.00
0x4007e0 1 0.00
0x4007e8 1 0.00
0x4007f0 1 0.00
0x4007f8 1 0.00
0x400800 1 0.00
0x400808 1 0.00
0x400818 1 0.00
0x400820 1 0.00
0x400828 1 0.00
0x400830 1 0.00
0x400838 1 0.00
0x400840 1 0.00
0x400848 1 0.00
0x400850 1 0.00
0x400858 1 0.00
0x400860 1 0.00
0x400868 1 0.00
0x400870 1 0.00
0x400878 1 0.00
0x400880 1 0.00
0x400888 1 0.00
0x400890 1 0.00
0x400898 1 0.00
0x4008a0 1 0.00
0x4008b0 1 0.00
0x4008b8 1 0.00
0x4008c0 1 0.00
0x4008c8 1 0.00
0x4008d0 1 0.00
0x4008d8 1 0.00
0x4008e0 1 0.00
0x400910 1 0.00
0x400918 1 0.00
0x400920 1 0.00
0x400928 1 0.00
0x400930 1 0.00
0x400938 1 0.00
0x400940 1 0.00
0x400948 1 0.00
0x400950 1 0.00
0x400958 1 0.00
0x400960 1 0.00
0x400968 1 0.00
0x400970 1 0.00
0x4009c0 1 0.00
0x4009c8 1 0.00
0x400a18 1 0.00
0x400a20 1 0.00
0x400a28 1 0.00
0x400a30 1 0.00
0x400a38 1 0.00
0x400a40 1 0.00
0x400a48 1 0.00
0x400a50 1 0.00
0x400a58 1 0.00
0x400a60 1 0.00
0x400a68 1 0.00
0x400a70 1 0.00
0x400a78 1 0.00
0x400a80 1 0.00
0x400a88 1 0.00
0x400a90 1 0.00
0x400a98 1 0.00
0x400aa0 1 0.00
0x400ab0 1 0.00
0x400ab8 1 0.00
0x400ac0 1 0.00
0x400ac8 1 0.00
0x400ad0 1 0.00
0x400ad8 1 0.00
0x400ae0 1 0.00
0x400ae8 1 0.00
0x400af0 1 0.00
0x400af8 1 0.00
0x400b00 1 0.00
0x400b08 1 0.00
0x400b10 1 0.00
0x400b18 1 0.00
0x400b20 1 0.00
0x400b28 1 0.00
0x400b30 1 0.00
0x400b38 1 0.00
0x400b40 1 0.00
0x400b48 1 0.00
0x400b50 1 0.00
0x400b58 1 0.00
0x400b60 1 0.00
0x400b68 1 0.00
0x400b70 1 0.00
0x400b78 1 0.00
0x400b80 1 0.00
0x400b88 1 0.00
0x400b90 1 0.00
0x400b98 1 0.00
0x400ba0 1 0.00
0x400ba8 1 0.00
0x400be0 1 0.00
0x400be8 1 0.00
0x400bf0 1 0.00
0x400bf8 1 0.00
0x400c00 1 0.00
0x400c08 1 0.00
0x400c10 1 0.00
0x400c18 1 0.00
0x400c20 1 0.00
0x400c28 1 0.00
0x400c30 1 0.00
0x400c80 1 0.00
0x400c88 1 0.00
0x400c90 1 0.00
0x400c98 1 0.00
0x400ca0 1 0.00
0x400ca8 1 0.00
0x400cb0 1 0.00
0x400cc0 11 0.01
0x400cc8 11 0.01
0x400cd0 11 0.01
0x400cd8 11 0.01
0x400ce0 11 0.01
0x400ce8 11 0.01
0x400cf0 11 0.01
0x400cf8 11 0.01
0x400d00 11 0.01
0x400d08 11 0.01
0x400d10 11 0.01
0x400d18 11 0.01
0x400d20 11 0.01
0x400d28 11 0.01
0x400d30 11 0.01
0x400d38 11 0.01
0x400d40 11 0.01
0x400d48 11 0.01
0x400d68 11 0.01
0x400d70 11 0.01
0x400d78 11 0.01
0x400d80 11 0.01
0x400d88 11 0.01
0x400d90 11 0.01
0x400da8 11 0.01
0x400db0 11 0.01
0x400dc8 11 0.01
0x400dd0 11 0.01
0x400dd8 11 0.01
0x400e80 11 0.01
0x400e88 11 0.01
0x400e90 11 0.01
0x400e98 11 0.01
0x400ea0 1 0.00
0x400ea8 1 0.00
0x400eb0 10 0.00
0x400eb8 10 0.00
0x400ec0 10 0.00
0x400ec8 10 0.00
0x400ee0 10 0.00
0x400ee8 10 0.00
0x400ef0 10 0.00
0x400ef8 10 0.00
0x400f00 10 0.00
0x400f08 10 0.00
0x400f10 10 0.00
0x400f48 10 0.00
0x400f50 10 0.00
0x400f58 10 0.00
0x401008 11 0.01
0x401010 11 0.01
0x401018 11 0.01
0x401020 11 0.01
0x401028 11 0.01
0x401030 11 0.01
0x401038 11 0.01
0x401040 11 0.01
0x401048 11 0.01
0x401050 11 0.01
0x401058 11 0.01
0x401060 11 0.01
0x401068 11 0.01
0x401070 10 0.00
0x401078 10 0.00
0x401080 10 0.00
0x401088 10 0.00
0x401090 10 0.00
0x401098 10 0.00
0x4010a0 10 0.00
0x4010a8 10 0.00
0x4010b0 10 0.00
0x4010b8 10 0.00
0x4010c0 10 0.00
0x4010c8 10 0.00
0x4010d0 10 0.00
0x4010d8 10 0.00
0x4010e0 10 0.00
0x4010e8 10 0.00
0x401108 10 0.00
0x401110 10 0.00
0x401118 10 0.00
0x401120 10 0.00
0x401138 10 0.00
0x401140 10 0.00
0x401148 10 0.00
0x401168 10 0.00
0x401170 10 0.00
0x401178 10 0.00
0x401180 10 0.00
0x4011c0 10 0.00
0x4011c8 10 0.00
0x4011d0 10 0.00
0x4011d8 10 0.00
0x4011e0 10 0.00
0x4011e8 10 0.00
0x4011f0 10 0.00
0x4011f8 10 0.00
0x401200 10 0.00
0x401210 10 0.00
0x401218 10 0.00
0x401220 10 0.00
0x401228 10 0.00
0x401230 10 0.00
0x401238 10 0.00
0x401240 10 0.00
0x401248 10 0.00
0x401250 10 0.00
0x401258 10 0.00
0x401260 10 0.00
0x401268 10 0.00
0x401270 10 0.00
0x401278 10 0.00
0x401280 10 0.00
0x401288 10 0.00
0x401290 10 0.00
0x401298 10 0.00
0x4012a0 10 0.00
0x4012a8 10 0.00
0x4012b0 10 0.00
0x4012b8 10 0.00
0x4012c0 10 0.00
0x4012c8 10 0.00
0x4012d0 10 0.00
0x4012d8 10 0.00
0x4012e0 10 0.00
0x4012e8 10 0.00
0x4012f0 10 0.00
0x4012f8 10 0.00
0x401300 10 0.00
0x401308 10 0.00
0x401310 10 0.00
0x401318 10 0.00
0x401320 10 0.00
0x401328 10 0.00
0x401330 10 0.00
0x401338 10 0.00
0x401340 10 0.00
0x401348 10 0.00
0x401350 22 0.01
0x401358 22 0.01
0x401360 22 0.01
0x401368 22 0.01
0x401370 22 0.01
0x401378 22 0.01
0x401380 22 0.01
0x401388 22 0.01
0x401390 22 0.01
0x401398 22 0.01
0x4013a0 22 0.01
0x4013a8 22 0.01
0x4013b0 22 0.01
0x4013c0 2 0.00
0x4013c8 2 0.00
0x4013d0 2 0.00
0x4013d8 2 0.00
0x4013e0 2 0.00
0x4013f0 2 0.00
0x4013f8 2 0.00
0x401400 2 0.00
0x401408 2 0.00
0x401410 2 0.00
0x401418 2 0.00
0x401420 2 0.00
0x401428 2 0.00
0x401468 2 0.00
0x401470 2 0.00
0x401478 2 0.00
0x401480 2 0.00
0x401488 1 0.00
0x401490 1 0.00
0x401498 1 0.00
0x4014a0 1 0.00
0x4014a8 1 0.00
0x4014c8 1 0.00
0x4014d0 2 0.00
0x4014d8 2 0.00
0x401538 2 0.00
0x4015c0 2 0.00
0x4015c8 2 0.00
0x4015d0 2 0.00
0x4015e0 2 0.00
0x4015e8 2 0.00
0x4015f0 2 0.00
0x4015f8 2 0.00
0x401600 2 0.00
0x401608 2 0.00
0x401610 2 0.00
0x401618 2 0.00
0x401620 2 0.00
0x401628 7 0.00
0x401630 7 0.00
0x401638 7 0.00
0x401640 7 0.00
0x401648 7 0.00
0x401650 7 0.00
0x401658 5 0.00
0x401660 5 0.00
0x401668 2 0.00
0x401670 2 0.00
0x401690 5 0.00
0x401698 5 0.00
0x4016a0 5 0.00
0x4016a8 5 0.00
0x4016b0 5 0.00
0x4016b8 5 0.00
0x4016e0 5 0.00
0x4016e8 5 0.00
0x4016f0 5 0.00
0x4016f8 5 0.00
0x401700 5 0.00
0x401708 5 0.00
0x401710 5 0.00
0x401718 2 0.00
0x401720 2 0.00
0x401728 1 0.00
0x401730 2 0.00
0x401738 1 0.00
0x401740 1 0.00
0x401748 1 0.00
0x401750 1 0.00
0x401758 1 0.00
0x401768 2 0.00
0x4017a8 2 0.00
0x4017b0 2 0.00
0x4017b8 1 0.00
0x4017c0 1 0.00
0x4017e0 2 0.00
0x4017f0 3 0.00
0x4017f8 3 0.00
0x401800 3 0.00
0x401808 3 0.00
0x401810 3 0.00
0x401818 3 0.00
0x401820 3 0.00
0x401828 3 0.00
0x401830 3 0.00
0x401838 3 0.00
0x401840 3 0.00
0x401848 3 0.00
0x401850 3 0.00
0x401870 3 0.00
0x401878 3 0.00
0x401880 3 0.00
0x401888 3 0.00
0x401890 3 0.00
0x401898 3 0.00
0x4018a0 3 0.00
0x4018a8 3 0.00
0x4018b0 3 0.00
0x4018b8 3 0.00
0x4018c0 3 0.00
0x4018c8 3 0.00
0x4018d0 3 0.00
0x4018d8 3 0.00
0x4018e0 3 0.00
0x4018e8 3 0.00
0x4018f0 3 0.00
0x4018f8 3 0.00
0x401938 3 0.00
0x401940 3 0.00
0x401948 3 0.00
0x401950 3 0.00
0x401958 1 0.00
0x401960 1 0.00
0x401968 2 0.00
0x401970 2 0.00
0x401978 1 0.00
0x401980 3 0.00
0x401988 3 0.00
0x401990 3 0.00
0x401998 3 0.00
0x4019a0 3 0.00
0x4019a8 3 0.00
0x4019b0 3 0.00
0x4019b8 3 0.00
0x4019c0 3 0.00
0x4019c8 3 0.00
0x4019d0 3 0.00
0x4019d8 18 0.01
0x4019e0 18 0.01
0x4019e8 18 0.01
0x4019f0 18 0.01
0x4019f8 18 0.01
0x401a00 18 0.01
0x401a08 13 0.01
0x401a10 13 0.01
0x401a18 13 0.01
0x401a30 13 0.01
0x401a38 13 0.01
0x401a40 13 0.01
0x401a48 13 0.01
0x401a50 13 0.01
0x401a58 13 0.01
0x401a60 6 0.00
0x401a68 6 0.00
0x401a70 5 0.00
0x401a78 3 0.00
0x401a80 2 0.00
0x401a88 15 0.01
0x401a90 15 0.01
0x401a98 3 0.00
0x401aa0 3 0.00
0x401aa8 3 0.00
0x401ab0 3 0.00
0x401ab8 3 0.00
0x401ac0 3 0.00
0x401ac8 3 0.00
0x401ad0 3 0.00
0x401ad8 1 0.00
0x401ae0 1 0.00
0x401ae8 1 0.00
0x401af0 1 0.00
0x401af8 1 0.00
0x401b00 1 0.00
0x401b08 1 0.00
0x401b10 1 0.00
0x401b18 1 0.00
0x401b20 1 0.00
0x401b28 1 0.00
0x401b58 1 0.00
0x401b60 1 0.00
0x401b78 1 0.00
0x401b80 1 0.00
0x401b88 1 0.00
0x401b90 3 0.00
0x401ba0 3 0.00
0x401ba8 3 0.00
0x401bb0 3 0.00
0x401bb8 3 0.00
0x401bc0 3 0.00
0x401bc8 3 0.00
0x401bd0 3 0.00
0x401bd8 3 0.00
0x401be0 3 0.00
0x401be8 3 0.00
0x401bf0 3 0.00
0x401bf8 3 0.00
0x401c00 3 0.00
0x401c08 3 0.00
0x401c10 3 0.00
0x401c18 3 0.00
0x401c20 3 0.00
0x401c88 3 0.00
0x401c90 3 0.00
0x401c98 3 0.00
0x401ca0 3 0.00
0x401ca8 3 0.00
0x401cb0 3 0.00
0x401cb8 3 0.00
0x401cc0 3 0.00
0x401cc8 3 0.00
0x401cd0 3 0.00
0x401cd8 3 0.00
0x401ce0 3 0.00
0x401d80 3 0.00
0x401d88 3 0.00
0x401d90 3 0.00
0x401d98 3 0.00
0x401da0 3 0.00
0x401da8 3 0.00
0x401db0 3 0.00
0x401db8 3 0.00
0x401dc0 3 0.00
0x401dc8 3 0.00
0x401dd0 3 0.00
0x401de0 2 0.00
0x401de8 2 0.00
0x401df0 2 0.00
0x401df8 2 0.00
0x401e00 2 0.00
0x401e08 2 0.00
0x401e10 2 0.00
0x401e18 2 0.00
0x401e20 2 0.00
0x401e28 2 0.00
0x401e30 2 0.00
0x401e48 2 0.00
0x401e50 2 0.00
0x401e58 2 0.00
0x401e60 2 0.00
0x401e68 2 0.00
0x401e70 2 0.00
0x401e78 2 0.00
0x401e80 2 0.00
0x401e88 2 0.00
0x401e90 2 0.00
0x401e98 2 0.00
0x401ea0 2 0.00
0x401ea8 2 0.00
0x401eb0 2 0.00
0x401eb8 2 0.00
0x401ec0 2 0.00
0x401ec8 2 0.00
0x401ed0 2 0.00
0x401ed8 2 0.00
0x401ee0 2 0.00
0x401ee8 2 0.00
0x401ef0 2 0.00
0x401ef8 2 0.00
0x401f88 2 0.00
0x401f90 2 0.00
0x401f98 2 0.00
0x401fa0 2 0.00
0x401fa8 2 0.00
0x401fb0 2 0.00
0x401fb8 2 0.00
0x401fc0 2 0.00
0x401fc8 2 0.00
0x401fd0 2 0.00
0x401fd8 2 0.00
0x401fe0 1 0.00
0x401fe8 1 0.00
0x401ff0 1 0.00
0x401ff8 1 0.00
0x402000 1 0.00
0x402008 1 0.00
0x402010 1 0.00
0x402018 1 0.00
0x402020 1 0.00
0x402028 1 0.00
0x402030 1 0.00
0x402038 1 0.00
0x402040 1 0.00
0x402048 1 0.00
0x402050 1 0.00
0x402058 1 0.00
0x402060 1 0.00
0x402068 1 0.00
0x402070 1 0.00
0x402078 1 0.00
0x402080 1 0.00
0x402088 1 0.00
0x402090 1 0.00
0x402098 1 0.00
0x4020a0 1 0.00
0x4020a8 1 0.00
0x4020b0 1 0.00
0x4020b8 1 0.00
0x4020c0 1 0.00
0x4020c8 1 0.00
0x4020d0 1 0.00
0x4020d8 1 0.00
0x4020e0 1 0.00
0x4020e8 1 0.00
0x4020f0 1 0.00
0x4020f8 1 0.00
0x402100 1 0.00
0x402108 1 0.00
0x402110 1 0.00
0x402118 1 0.00
0x402120 1 0.00
0x402128 1 0.00
0x402130 1 0.00
0x402138 1 0.00
0x402140 1 0.00
0x402148 1 0.00
0x402150 1 0.00
0x402158 1 0.00
0x402160 1 0.00
0x402168 1 0.00
0x402170 1 0.00
0x402178 1 0.00
0x402180 1 0.00
0x4021c8 1 0.00
0x4021d0 1 0.00
0x4021d8 1 0.00
0x4021e0 1 0.00
0x4021e8 1 0.00
0x4021f0 1 0.00
0x4021f8 1 0.00
0x402200 1 0.00
0x402208 1 0.00
0x402220 1 0.00
0x402228 1 0.00
0x402230 1 0.00
0x402238 1 0.00
0x402240 1 0.00
0x402248 1 0.00
0x402250 1 0.00
0x402258 1 0.00
0x402260 1 0.00
0x402268 1 0.00
0x402270 1 0.00
0x402278 1 0.00
0x402280 1 0.00
0x402288 1 0.00
0x402348 1 0.00
0x402350 1 0.00
0x402358 1 0.00
0x402360 1 0.00
0x402368 1 0.00
0x402370 1 0.00
0x402378 1 0.00
0x402380 1 0.00
0x402388 1 0.00
0x402390 1 0.00
0x402398 1 0.00
0x4023a0 1 0.00
0x402470 1 0.00
0x402478 1 0.00
0x402480 1 0.00
0x402488 1 0.00
0x402490 1 0.00
0x402498 1 0.00
0x4024a0 1 0.00
0x4024a8 1 0.00
0x4024b0 1 0.00
0x4024b8 1 0.00
0x4024c0 1 0.00
0x4024c8 1 0.00
0x4024d0 1 0.00
0x4024d8 1 0.00
0x4024e0 1 0.00
0x4024e8 1 0.00
0x4024f0 1 0.00
0x4024f8 1 0.00
0x402500 1 0.00
0x402518 1 0.00
0x402520 1 0.00
0x402528 1 0.00
0x402530 1 0.00
0x402538 1 0.00
0x402540 1 0.00
0x402548 1 0.00
0x402550 1 0.00
0x402558 1 0.00
0x402560 1 0.00
0x402568 1 0.00
0x402570 1 0.00
0x402578 1 0.00
0x402580 1 0.00
0x4025c8 1 0.00
0x4025d0 1 0.00
0x4025d8 1 0.00
0x4025e0 1 0.00
0x402608 1 0.00
0x402610 1 0.00
0x402630 1 0.00
0x402638 1 0.00
0x402640 1 0.00
0x4026d8 1 0.00
0x4026e0 1 0.00
0x4026e8 1 0.00
0x4026f0 1 0.00
0x4026f8 1 0.00
0x402700 1 0.00
0x402708 1 0.00
0x402710 1 0.00
0x402718 1 0.00
0x402720 1 0.00
0x402728 1 0.00
0x402730 1 0.00
0x402738 1 0.00
0x402740 1 0.00
0x402748 1 0.00
0x402750 1 0.00
0x402758 1 0.00
0x402760 1 0.00
0x402768 1 0.00
0x402770 1 0.00
0x402778 1 0.00
0x402780 1 0.00
0x402788 1 0.00
0x402790 1 0.00
0x402798 1 0.00
0x4027b8 1 0.00
0x4027c0 1 0.00
0x4027d8 1 0.00
0x4027e0 1 0.00
0x4027e8 1 0.00
0x4027f0 1 0.00
0x4027f8 1 0.00
0x402800 1 0.00
0x402808 1 0.00
0x402810 1 0.00
0x402818 1 0.00
0x402820 1 0.00
0x402828 1 0.00
0x402830 1 0.00
0x402838 1 0.00
0x402840 1 0.00
0x402848 1 0.00
0x402850 1 0.00
0x402858 1 0.00
0x402860 1 0.00
0x402868 1 0.00
0x402870 1 0.00
0x402878 1 0.00
0x402880 1 0.00
0x402888 1 0.00
0x402890 1 0.00
0x4029f0 1 0.00
0x4029f8 1 0.00
0x402a00 1 0.00
0x402a08 1 0.00
0x402a10 1 0.00
0x402a18 1 0.00
0x402a20 1 0.00
0x402a28 1 0.00
0x402a30 1 0.00
0x402a38 1 0.00
0x402a40 1 0.00
0x402a48 1 0.00
0x402a50 1 0.00
0x402ab8 1 0.00
0x402ac0 1 0.00
0x402ac8 1 0.00
0x402ad0 1 0.00
0x402ad8 1 0.00
0x402ae0 1 0.00
0x402ae8 1 0.00
0x402af0 1 0.00
0x402af8 1 0.00
0x402b00 1 0.00
0x402b08 1 0.00
0x402b10 1 0.00
0x402b18 1 0.00
0x402b20 1 0.00
0x402b28 1 0.00
0x402b30 1 0.00
0x402b38 1 0.00
0x402b40 1 0.00
0x402b48 1 0.00
0x402b50 1 0.00
0x402b58 1 0.00
0x402b60 1 0.00
0x402b68 1 0.00
0x402b70 1 0.00
0x402b78 1 0.00
0x402b80 1 0.00
0x402b88 1 0.00
0x402b90 1 0.00
0x402b98 1 0.00
0x402ba0 1 0.00
0x402ba8 1 0.00
0x402bb0 1 0.00
0x402bb8 1 0.00
0x402bc0 1 0.00
0x402bc8 1 0.00
0x402bd0 1 0.00
0x402bd8 1 0.00
0x402be0 1 0.00
0x402be8 1 0.00
0x402bf0 1 0.00
0x402bf8 1 0.00
0x402c00 1 0.00
0x402c08 1 0.00
0x402c10 1 0.00
0x402c18 1 0.00
0x402c20 1 0.00
0x402c28 1 0.00
0x402c30 1 0.00
0x402c38 1 0.00
0x402c40 1 0.00
0x402c48 1 0.00
0x402c50 1 0.00
0x402c70 1 0.00
0x402c78 1 0.00
0x402c80 1 0.00
0x402c88 1 0.00
0x402c90 1 0.00
0x402c98 1 0.00
0x402ca0 1 0.00
0x402ca8 1 0.00
0x402cb0 1 0.00
0x402cb8 1 0.00
0x402cc0 1 0.00
0x402cc8 1 0.00
0x402cd0 1 0.00
0x402cd8 1 0.00
0x402ce0 1 0.00
0x402ce8 1 0.00
0x402cf0 1 0.00
0x402cf8 1 0.00
0x402d00 1 0.00
0x402d08 1 0.00
0x402d10 1 0.00
0x402d18 1 0.00
0x402d20 1 0.00
0x402d28 1 0.00
0x402d30 1 0.00
0x402d38 1 0.00
0x402d40 1 0.00
0x402d48 1 0.00
0x402d50 1 0.00
0x402d58 1 0.00
0x402d60 1 0.00
0x402d68 1 0.00
0x402d70 1 0.00
0x402d78 1 0.00
0x402d80 1 0.00
0x402d88 1 0.00
0x402d90 1 0.00
0x402d98 1 0.00
0x402da0 1 0.00
0x402da8 1 0.00
0x402db0 1 0.00
0x402db8 1 0.00
0x402dc0 1 0.00
0x402dc8 1 0.00
0x402dd0 1 0.00
0x402dd8 1 0.00
0x402de0 1 0.00
0x402de8 1 0.00
0x402df0 1 0.00
0x402df8 1 0.00
0x402e00 1 0.00
0x402e08 1 0.00
0x402e10 1 0.00
0x402e18 1 0.00
0x402e20 1 0.00
0x402e28 1 0.00
0x402e30 1 0.00
0x402e38 1 0.00
0x402e40 1 0.00
0x402e48 1 0.00
0x402e50 1 0.00
0x402e58 1 0.00
0x402e60 1 0.00
0x402e68 1 0.00
0x402e70 1 0.00
0x402e78 1 0.00
0x402e80 1 0.00
0x402e88 1 0.00
0x402e90 1 0.00
0x402e98 1 0.00
0x402ea0 1 0.00
0x402ea8 1 0.00
0x402eb0 1 0.00
0x402eb8 1 0.00
0x402ec0 1 0.00
0x402ec8 1 0.00
0x402ed0 1 0.00
0x402ed8 1 0.00
0x402ee0 1 0.00
0x402ee8 1 0.00
0x402ef0 1 0.00
0x402ef8 1 0.00
0x402f00 1 0.00
0x402f08 1 0.00
0x402f10 1 0.00
0x402fa8 1 0.00
0x402fb0 1 0.00
0x402fb8 1 0.00
0x402fc0 1 0.00
0x402fc8 1 0.00
0x402fd0 1 0.00
0x402fd8 10 0.00
0x402fe0 10 0.00
0x402fe8 10 0.00
0x402ff0 10 0.00
0x402ff8 10 0.00
0x403000 10 0.00
0x403008 10 0.00
0x403010 10 0.00
0x403018 10 0.00
0x403020 10 0.00
0x403028 10 0.00
0x403030 10 0.00
0x403038 10 0.00
0x403040 10 0.00
0x403048 10 0.00
0x403050 10 0.00
0x403058 10 0.00
0x403060 10 0.00
0x403068 10 0.00
0x403070 10 0.00
0x403078 10 0.00
0x403080 10 0.00
0x403088 10 0.00
0x403090 10 0.00
0x403098 10 0.00
0x4030a0 10 0.00
0x4030a8 10 0.00
0x4030b0 10 0.00
0x4030b8 10 0.00
0x4030c0 10 0.00
0x4030c8 10 0.00
0x4030d0 10 0.00
0x4030d8 10 0.00
0x4030e0 10 0.00
0x4030e8 10 0.00
0x4030f0 10 0.00
0x4030f8 10 0.00
0x403100 10 0.00
0x403108 10 0.00
0x403110 10 0.00
0x403118 10 0.00
0x403120 10 0.00
0x403128 10 0.00
0x403130 10 0.00
0x403138 10 0.00
0x403140 10 0.00
0x403148 10 0.00
0x403150 10 0.00
0x403158 10 0.00
0x403160 10 0.00
0x403168 10 0.00
0x403170 10 0.00
0x403178 10 0.00
0x403180 10 0.00
0x403188 10 0.00
0x403190 10 0.00
0x403198 10 0.00
0x4031a0 10 0.00
0x4031a8 10 0.00
0x4031b0 10 0.00
0x4031b8 10 0.00
0x4031c0 10 0.00
0x4031c8 10 0.00
0x4031d0 10 0.00
0x4031d8 10 0.00
0x4031e0 10 0.00
0x4031e8 10 0.00
0x4031f0 10 0.00
0x4031f8 10 0.00
0x403200 10 0.00
0x403208 10 0.00
0x403210 10 0.00
0x403218 10 0.00
0x4032b0 10 0.00
0x4032b8 10 0.00
0x4032c0 10 0.00
0x4032c8 10 0.00
0x4032d0 10 0.00
0x4032d8 10 0.00
0x4032e0 10 0.00
0x4032e8 10 0.00
0x4032f0 10 0.00
0x4032f8 10 0.00
0x403300 1 0.00
0x403308 1 0.00
0x403310 1 0.00
0x403318 1 0.00
0x403320 1 0.00
0x403328 1 0.00
0x403330 1 0.00
0x403338 1 0.00
0x403340 1 0.00
0x403348 1 0.00
0x403350 1 0.00
0x403358 1 0.00
0x403360 1 0.00
0x403368 1 0.00
0x403370 1 0.00
0x403378 1 0.00
0x4033c0 1 0.00
0x4033c8 1 0.00
0x4033d0 1 0.00
0x4033e8 1 0.00
0x4033f0 1 0.00
0x4033f8 1 0.00
0x403400 1 0.00
0x403408 1 0.00
0x403410 1 0.00
0x403418 1 0.00
0x403420 1 0.00
0x403428 1 0.00
0x403430 1 0.00
0x403480 1 0.00
0x403488 1 0.00
0x403490 1 0.00
0x403498 1 0.00
0x4034a0 1 0.00
0x4034a8 1 0.00
0x4034b0 1 0.00
0x4034b8 1 0.00
0x4034c0 1 0.00
0x4034c8 1 0.00
0x4034d0 1 0.00
0x4034d8 1 0.00
0x4034e0 1 0.00
0x4034e8 1 0.00
0x4034f0 1 0.00
0x4034f8 1 0.00
0x403500 1 0.00
0x403508 1 0.00
0x403510 1 0.00
0x403518 1 0.00
0x403520 1 0.00
0x403528 1 0.00
0x403530 1 0.00
0x403538 1 0.00
0x403540 1 0.00
0x403548 1 0.00
0x403550 1 0.00
0x403558 1 0.00
0x403560 1 0.00
0x403568 1 0.00
0x403570 1 0.00
0x403578 1 0.00
0x403580 1 0.00
0x403588 1 0.00
0x403590 1 0.00
0x403598 1 0.00
0x4035a0 1 0.00
0x4035a8 1 0.00
0x4035b0 1 0.00
0x4035b8 1 0.00
0x4035c0 1 0.00
0x4035c8 1 0.00
0x4035d0 1 0.00
0x4035d8 1 0.00
0x4035e0 1 0.00
0x4035e8 1 0.00
0x4035f0 1 0.00
0x4035f8 1 0.00
0x403600 1 0.00
0x403608 1 0.00
0x403610 1 0.00
0x403668 1 0.00
0x403670 1 0.00
0x403678 1 0.00
0x403680 1 0.00
0x403688 1 0.00
0x403690 1 0.00
0x403698 1 0.00
0x4036a0 1 0.00
0x4036a8 1 0.00
0x4036b0 1 0.00
0x4036b8 1 0.00
0x4036c0 1 0.00
0x4036c8 1 0.00
0x4036d0 1 0.00
0x4036d8 1 0.00
0x4036e0 1 0.00
0x4036e8 1 0.00
0x4036f0 1 0.00
0x4036f8 1 0.00
0x403700 1 0.00
0x403708 1 0.00
0x403710 1 0.00
0x403718 1 0.00
0x403720 1 0.00
0x403728 1 0.00
0x403730 1 0.00
0x403738 1 0.00
0x403740 1 0.00
0x403748 1 0.00
0x403750 1 0.00
0x403758 1 0.00
0x403760 1 0.00
0x403768 1 0.00
0x403770 1 0.00
0x403778 1 0.00
0x403780 1 0.00
0x403788 1 0.00
0x403790 1 0.00
0x403798 1 0.00
0x4037a0 1 0.00
0x4037a8 1 0.00
0x4037b0 1 0.00
0x4037b8 1 0.00
0x4037c0 1 0.00
0x4037c8 1 0.00
0x4037d0 1 0.00
0x4037d8 1 0.00
0x4037e0 1 0.00
0x4037e8 1 0.00
0x4037f0 10 0.00
0x4037f8 10 0.00
0x403800 10 0.00
0x403808 10 0.00
0x403810 10 0.00
0x403818 10 0.00
0x403820 10 0.00
0x403828 10 0.00
0x403830 10 0.00
0x403838 10 0.00
0x403840 10 0.00
0x403848 10 0.00
0x403850 10 0.00
0x403858 10 0.00
0x403860 10 0.00
0x403868 10 0.00
0x403870 10 0.00
0x403878 10 0.00
0x403880 10 0.00
0x403888 10 0.00
0x403890 10 0.00
0x403898 10 0.00
0x4038a0 10 0.00
0x4038a8 10 0.00
0x4038b0 10 0.00
0x403900 10 0.00
0x403908 10 0.00
0x403910 10 0.00
0x403918 10 0.00
0x403920 10 0.00
0x403928 10 0.00
0x403930 10 0.00
0x403938 10 0.00
0x403940 10 0.00
0x403948 10 0.00
0x403950 10 0.00
0x403958 10 0.00
0x403960 10 0.00
0x403968 10 0.00
0x403970 10 0.00
0x403978 10 0.00
0x403980 10 0.00
0x403988 10 0.00
0x403990 10 0.00
0x403998 10 0.00
0x4039a0 10 0.00
0x4039a8 10 0.00
0x4039b0 10 0.00
0x4039b8 10 0.00
0x4039c0 10 0.00
0x4039c8 10 0.00
0x4039d0 10 0.00
0x4039d8 10 0.00
0x4039e0 10 0.00
0x4039e8 10 0.00
0x4039f0 10 0.00
0x4039f8 10 0.00
0x403a00 10 0.00
0x403a08 10 0.00
0x403a10 10 0.00
0x403a18 10 0.00
0x403a20 10 0.00
0x403a28 10 0.00
0x403a30 10 0.00
0x403a38 10 0.00
0x403a40 10 0.00
0x403a48 10 0.00
0x403a50 10 0.00
0x403a58 10 0.00
0x403a60 10 0.00
0x403a68 10 0.00
0x403a70 10 0.00
0x403a78 10 0.00
0x403a80 10 0.00
0x403a88 10 0.00
0x403a90 10 0.00
0x403ae8 10 0.00
0x403af0 10 0.00
0x403af8 10 0.00
0x403b00 10 0.00
0x403b08 10 0.00
0x403b10 10 0.00
0x403b18 10 0.00
0x403b20 10 0.00
0x403b28 10 0.00
0x403b30 10 0.00
0x403b38 10 0.00
0x403b40 10 0.00
0x403b48 10 0.00
0x403b50 10 0.00
0x403b58 10 0.00
0x403b60 10 0.00
0x403b68 10 0.00
0x403b70 10 0.00
0x403b78 10 0.00
0x403b80 10 0.00
0x403b88 10 0.00
0x403b90 10 0.00
0x403b98 10 0.00
0x403ba0 10 0.00
0x403ba8 10 0.00
0x403bb0 10 0.00
0x403bb8 10 0.00
0x403bc0 10 0.00
0x403bc8 10 0.00
0x403bd0 10 0.00
0x403bd8 10 0.00
0x403be0 10 0.00
0x403be8 10 0.00
0x403bf0 10 0.00
0x403bf8 10 0.00
0x403c00 10 0.00
0x403c08 10 0.00
0x403c10 10 0.00
0x403c18 10 0.00
0x403c20 10 0.00
0x403c28 10 0.00
0x403c30 10 0.00
0x403c38 10 0.00
0x403c40 10 0.00
0x403c48 10 0.00
0x403c50 10 0.00
0x403c60 10 0.00
0x403c68 10 0.00
0x403c70 10 0.00
0x403c78 10 0.00
0x403c80 10 0.00
0x403c88 10 0.00
0x403c90 10 0.00
0x403c98 10 0.00
0x403ca0 10 0.00
0x403ca8 10 0.00
0x403cb0 10 0.00
0x403cb8 10 0.00
0x403cc0 10 0.00
0x403cc8 10 0.00
0x403cd0 10 0.00
0x403cd8 10 0.00
0x403ce0 10 0.00
0x403ce8 10 0.00
0x403cf0 10 0.00
0x403cf8 10 0.00
0x403d00 10 0.00
0x403d08 10 0.00
0x403d10 10 0.00
0x403d18 10 0.00
0x403d20 10 0.00
0x403d28 10 0.00
0x403d30 10 0.00
0x403d38 10 0.00
0x403d40 10 0.00
0x403d48 10 0.00
0x403d50 1 0.00
0x403d58 1 0.00
0x403d60 1 0.00
0x403d68 1 0.00
0x403d70 1 0.00
0x403d78 1 0.00
0x403d80 1 0.00
0x403d88 1 0.00
0x403d90 1 0.00
0x403d98 1 0.00
0x403da0 1 0.00
0x403db8 1 0.00
0x403dc0 1 0.00
0x403dc8 1 0.00
0x403dd0 1 0.00
0x403dd8 1 0.00
0x403de0 1 0.00
0x403de8 1 0.00
0x403df0 1 0.00
0x403df8 1 0.00
0x403e00 1 0.00
0x403e08 1 0.00
0x403e10 1 0.00
0x403e18 1 0.00
0x403e20 1 0.00
0x403e28 1 0.00
0x403e30 1 0.00
0x403e38 1 0.00
0x403e40 1 0.00
0x403e48 1 0.00
0x403e90 1 0.00
0x403e98 1 0.00
0x403ea0 1 0.00
0x403ea8 1 0.00
0x403eb0 1 0.00
0x403eb8 1 0.00
0x403ec0 1 0.00
0x403ec8 1 0.00
0x403ed0 1 0.00
0x403ed8 1 0.00
0x403ee0 1 0.00
0x403ee8 1 0.00
0x403ef0 1 0.00
0x403ef8 1 0.00
0x403f00 1 0.00
0x403f08 1 0.00
0x403f10 1 0.00
0x403f18 1 0.00
0x403f20 1 0.00
0x403f28 1 0.00
0x403f30 1 0.00
0x403f38 1 0.00
0x403f40 1 0.00
0x403f48 1 0.00
0x403f50 1 0.00
0x403f58 1 0.00
0x403f60 1 0.00
0x403f68 1 0.00
0x403f70 1 0.00
0x403f78 1 0.00
0x403f80 1 0.00
0x403f88 1 0.00
0x403f90 1 0.00
0x403f98 1 0.00
0x403fa0 1 0.00
0x403fc8 1 0.00
0x403fd0 1 0.00
0x403fd8 1 0.00
0x403fe0 1 0.00
0x403fe8 1 0.00
0x403ff0 1 0.00
0x4040f8 1 0.00
0x404100 1 0.00
0x404108 1 0.00
0x404110 1 0.00
0x404118 1 0.00
0x404120 1 0.00
0x404128 1 0.00
0x404130 1 0.00
0x404138 1 0.00
0x404140 1 0.00
0x404148 1 0.00
0x404150 1 0.00
0x404158 1 0.00
0x404160 1 0.00
0x404168 1 0.00
0x404170 1 0.00
0x404178 1 0.00
0x404180 1 0.00
0x404188 1 0.00
0x404190 1 0.00
0x4041a8 1 0.00
0x4041b0 1 0.00
0x4041b8 1 0.00
0x4041c0 1 0.00
0x4041c8 1 0.00
0x4041d0 1 0.00
0x4041d8 1 0.00
0x4041e0 1 0.00
0x4041e8 1 0.00
0x4041f0 1 0.00
0x4041f8 1 0.00
0x404200 1 0.00
0x404208 1 0.00
0x404210 1 0.00
0x404218 1 0.00
0x404220 1 0.00
0x404228 1 0.00
0x404230 1 0.00
0x404238 1 0.00
0x404240 1 0.00
0x404248 1 0.00
0x404250 1 0.00
0x404258 1 0.00
0x404260 1 0.00
0x404268 1 0.00
0x404270 1 0.00
0x404278 1 0.00
0x404280 1 0.00
0x404288 1 0.00
0x404290 1 0.00
0x404298 1 0.00
0x4042a0 1 0.00
0x4042a8 1 0.00
0x4042b0 1 0.00
0x4042b8 1 0.00
0x4042c0 1 0.00
0x4042c8 1 0.00
0x4042d0 1 0.00
0x4042d8 1 0.00
0x4042e0 1 0.00
0x4042e8 1 0.00
0x4042f0 1 0.00
0x4042f8 1 0.00
0x404300 1 0.00
0x404308 1 0.00
0x404310 1 0.00
0x4044c0 1 0.00
0x4044c8 1 0.00
0x4044d0 1 0.00
0x4044d8 1 0.00
0x4044e0 1 0.00
0x4044e8 1 0.00
0x4044f0 1 0.00
0x404500 1 0.00
0x404508 1 0.00
0x404510 1 0.00
0x404518 1 0.00
0x404520 1 0.00
0x404528 1 0.00
0x404530 1 0.00
0x404538 1 0.00
0x404540 1 0.00
0x404548 1 0.00
0x404550 1 0.00
0x404558 1 0.00
0x404568 1 0.00
0x404570 1 0.00
0x404578 1 0.00
0x404580 1 0.00
0x404588 1 0.00
0x404590 1 0.00
0x404598 1 0.00
0x4045a0 1 0.00
0x4045a8 1 0.00
0x4045b0 1 0.00
0x4045b8 1 0.00
0x404618 1 0.00
0x404620 1 0.00
0x404628 1 0.00
0x4046b0 1 0.00
0x4046b8 1 0.00
0x4046c0 1 0.00
0x4046c8 1 0.00
0x4046d0 1 0.00
0x4046d8 1 0.00
0x4046e0 1 0.00
0x4046e8 1 0.00
0x4046f8 1 0.00
0x404700 1 0.00
0x404708 1 0.00
0x404710 1 0.00
0x404718 1 0.00
0x404720 1 0.00
0x404728 1 0.00
0x404730 1 0.00
0x404738 1 0.00
0x404740 1 0.00
0x404748 1 0.00
0x404750 1 0.00
0x404758 1 0.00
0x404770 1 0.00
0x404778 1 0.00
0x404780 1 0.00
0x404788 1 0.00
0x404790 1 0.00
0x404798 1 0.00
0x4047b0 1 0.00
0x4047d0 4 0.00
0x4047d8 4 0.00
0x4047e0 4 0.00
0x4047e8 4 0.00
0x4047f0 4 0.00
0x4047f8 4 0.00
0x404800 4 0.00
0x404808 1 0.00
0x404810 1 0.00
0x404818 1 0.00
0x404820 1 0.00
0x404828 1 0.00
0x404830 1 0.00
0x404838 3 0.00
0x404840 3 0.00
0x404858 3 0.00
0x404860 3 0.00
0x404868 3 0.00
0x404870 3 0.00
0x404878 3 0.00
0x404880 3 0.00
0x404888 1 0.00
0x404890 1 0.00
0x404898 3 0.00
0x4048a0 3 0.00
0x4048a8 3 0.00
0x4048b0 3 0.00
0x4048c8 3 0.00
0x4048d0 3 0.00
0x4048d8 3 0.00
0x4048e0 3 0.00
0x404908 3 0.00
0x404910 3 0.00
0x404918 3 0.00
0x404920 2 0.00
0x404928 2 0.00
0x404930 2 0.00
0x404938 2 0.00
0x404940 2 0.00
0x404958 3 0.00
0x404960 3 0.00
0x404968 1 0.00
0x404970 1 0.00
0x404978 1 0.00
0x404980 1 0.00
0x404988 3 0.00
0x404990 3 0.00
0x404998 2 0.00
0x4049a0 2 0.00
0x4049a8 2 0.00
0x4049b0 2 0.00
0x4049b8 1 0.00
0x4049c0 1 0.00
0x4049c8 1 0.00
0x4049d0 1 0.00
0x4049d8 1 0.00
0x4049f8 1 0.00
0x404a00 3 0.00
0x404a08 3 0.00
0x404a10 3 0.00
0x404a18 4 0.00
0x404a20 4 0.00
0x404a28 4 0.00
0x404a30 4 0.00
0x404a38 4 0.00
0x404a40 4 0.00
0x404a50 28 0.01
0x404a58 28 0.01
0x404a60 28 0.01
0x404a68 28 0.01
0x404a70 28 0.01
0x404a78 28 0.01
0x404a80 28 0.01
0x404a88 28 0.01
0x404a90 28 0.01
0x404a98 28 0.01
0x404aa0 28 0.01
0x404aa8 28 0.01
0x404ab0 28 0.01
0x404ab8 28 0.01
0x404ac0 28 0.01
0x404ac8 28 0.01
0x404ad0 28 0.01
0x404ad8 28 0.01
0x404ae0 28 0.01
0x404af0 41 0.02
0x404af8 41 0.02
0x404b00 41 0.02
0x404b08 41 0.02
0x404b10 41 0.02
0x404b18 41 0.02
0x404b20 41 0.02
0x404b28 41 0.02
0x404b30 41 0.02
0x404b38 41 0.02
0x404b40 41 0.02
0x404b48 41 0.02
0x404b50 41 0.02
0x404b60 2 0.00
0x404b68 2 0.00
0x404b70 2 0.00
0x404b78 2 0.00
0x404b80 2 0.00
0x404b88 2 0.00
0x404b90 2 0.00
0x404b98 2 0.00
0x404ba0 2 0.00
0x404ba8 2 0.00
0x404bb0 2 0.00
0x404bb8 2 0.00
0x404bc0 2 0.00
0x404bc8 2 0.00
0x404bd0 2 0.00
0x404bd8 2 0.00
0x404be0 2 0.00
0x404be8 2 0.00
0x404bf0 2 0.00
0x404bf8 2 0.00
0x404c00 2 0.00
0x404c08 2 0.00
0x404c10 2 0.00
0x404c18 2 0.00
0x404c20 2 0.00
0x404c28 2 0.00
0x404c30 2 0.00
0x404c38 2 0.00
0x404c40 2 0.00
0x404c60 2 0.00
0x404c68 2 0.00
0x404c70 2 0.00
0x404c78 2 0.00
0x404c98 2 0.00
0x404ca0 2 0.00
0x404ca8 2 0.00
0x404cb0 2 0.00
0x404cc8 2 0.00
0x404cd0 2 0.00
0x404cd8 2 0.00
0x404ce0 2 0.00
0x404d68 2 0.00
0x404d70 2 0.00
0x404d78 2 0.00
0x404d80 2 0.00
0x404d88 2 0.00
0x404d90 2 0.00
0x404de0 2 0.00
0x404de8 2 0.00
0x404df0 2 0.00
0x404df8 2 0.00
0x404e00 2 0.00
0x404e08 2 0.00
0x404e10 2 0.00
0x404e18 2 0.00
0x404e20 2 0.00
0x404e28 2 0.00
0x404e30 2 0.00
0x404e38 2 0.00
0x404e40 2 0.00
0x404e48 2 0.00
0x404e50 2 0.00
0x404e58 2 0.00
0x404fa8 2 0.00
0x404fb0 2 0.00
0x404fb8 2 0.00
0x404fc0 2 0.00
0x404fc8 2 0.00
0x404fd0 2 0.00
0x404fd8 2 0.00
0x404fe0 2 0.00
0x404fe8 2 0.00
0x404ff0 2 0.00
0x404ff8 2 0.00
0x405000 2 0.00
0x405008 2 0.00
0x405010 2 0.00
0x405018 2 0.00
0x405020 2 0.00
0x405028 2 0.00
0x405030 2 0.00
0x405038 2 0.00
0x405040 2 0.00
0x405048 2 0.00
0x405050 2 0.00
0x405058 2 0.00
0x405060 2 0.00
0x405068 2 0.00
0x405070 2 0.00
0x405078 2 0.00
0x405080 2 0.00
0x405088 2 0.00
0x405090 2 0.00
0x405098 2 0.00
0x4050a0 2 0.00
0x4050a8 2 0.00
0x4050b0 2 0.00
0x4050b8 2 0.00
0x4050c0 2 0.00
0x4050c8 2 0.00
0x4050d0 2 0.00
0x4050d8 2 0.00
0x4050e0 22 0.01
0x4050e8 22 0.01
0x4050f0 22 0.01
0x4050f8 22 0.01
0x405100 22 0.01
0x405108 22 0.01
0x405110 22 0.01
0x405118 22 0.01
0x405120 22 0.01
0x405128 22 0.01
0x405130 22 0.01
0x405138 22 0.01
0x405140 22 0.01
0x405148 22 0.01
0x405150 22 0.01
0x405158 22 0.01
0x405160 22 0.01
0x405168 22 0.01
0x405170 22 0.01
0x405178 22 0.01
0x405190 22 0.01
0x405198 22 0.01
0x4051a0 22 0.01
0x4051a8 22 0.01
0x4051b0 22 0.01
0x4051b8 22 0.01
0x4051c0 22 0.01
0x4051c8 22 0.01
0x4051f0 22 0.01
0x4051f8 22 0.01
0x405200 22 0.01
0x405208 1 0.00
0x405210 1 0.00
0x405218 1 0.00
0x405220 1 0.00
0x405228 1 0.00
0x405230 22 0.01
0x405238 22 0.01
0x405240 22 0.01
0x405248 22 0.01
0x4052a0 22 0.01
0x4052a8 22 0.01
0x4052b0 22 0.01
0x4052b8 22 0.01
0x4052c0 22 0.01
0x4052c8 22 0.01
0x4052d0 90 0.04
0x4052d8 90 0.04
0x405410 90 0.04
0x405418 90 0.04
0x405420 90 0.04
0x405428 54 0.03
0x405430 54 0.03
0x405438 54 0.03
0x405440 54 0.03
0x405448 54 0.03
0x405450 54 0.03
0x405458 54 0.03
0x405460 54 0.03
0x405468 22 0.01
0x405470 22 0.01
0x405478 22 0.01
0x405480 22 0.01
0x405488 22 0.01
0x405490 22 0.01
0x405498 54 0.03
0x4054a0 54 0.03
0x4054a8 54 0.03
0x405508 54 0.03
0x405510 54 0.03
0x405518 213 0.10
0x405520 213 0.10
0x405528 213 0.10
0x405530 213 0.10
0x405538 213 0.10
0x405540 213 0.10
0x405588 213 0.10
0x405590 213 0.10
0x405598 213 0.10
0x4055a0 213 0.10
0x4055a8 213 0.10
0x4055b0 213 0.10
0x4055b8 213 0.10
0x4055c0 213 0.10
0x4055c8 213 0.10
0x4055d0 213 0.10
0x4055d8 54 0.03
0x4055e0 36 0.02
0x4055e8 36 0.02
0x4055f0 36 0.02
0x405698 36 0.02
0x4056a0 36 0.02
0x4056a8 36 0.02
0x4056b0 36 0.02
0x4056b8 36 0.02
0x4056c0 36 0.02
0x4056c8 36 0.02
0x4056d0 36 0.02
0x4056d8 36 0.02
0x4056e0 36 0.02
0x4056e8 36 0.02
0x4056f0 36 0.02
0x4056f8 36 0.02
0x405700 36 0.02
0x405708 1 0.00
0x405710 1 0.00
0x405718 1 0.00
0x405720 1 0.00
0x405728 1 0.00
0x405730 1 0.00
0x405738 1 0.00
0x405740 1 0.00
0x405748 1 0.00
0x405750 1 0.00
0x405758 1 0.00
0x405780 1 0.00
0x405788 1 0.00
0x405790 1 0.00
0x4057c0 1 0.00
0x4057c8 1 0.00
0x4057d0 37 0.02
0x4057d8 37 0.02
0x4057e0 37 0.02
0x4057e8 36 0.02
0x4057f0 36 0.02
0x4057f8 36 0.02
0x405800 36 0.02
0x405808 36 0.02
0x405810 1 0.00
0x405818 1 0.00
0x405820 36 0.02
0x405828 36 0.02
0x405830 36 0.02
0x405838 36 0.02
0x4058a8 36 0.02
0x4058b0 36 0.02
0x4058b8 36 0.02
0x4058c0 36 0.02
0x4058c8 36 0.02
0x4058d0 36 0.02
0x4058d8 3 0.00
0x4058e0 3 0.00
0x4058e8 3 0.00
0x4058f0 3 0.00
0x4058f8 3 0.00
0x405900 3 0.00
0x405908 3 0.00
0x405910 3 0.00
0x405918 3 0.00
0x405920 3 0.00
0x405928 3 0.00
0x405930 3 0.00
0x405938 3 0.00
0x405940 36 0.02
0x405948 36 0.02
0x405950 36 0.02
0x405958 36 0.02
0x405960 3 0.00
0x405968 3 0.00
0x405970 3 0.00
0x405978 3 0.00
0x4059d8 3 0.00
0x4059e0 3 0.00
0x4059e8 3 0.00
0x4059f0 3 0.00
0x4059f8 3 0.00
0x405a00 3 0.00
0x405a08 3 0.00
0x405a10 3 0.00
0x405a18 3 0.00
0x405a20 6 0.00
0x405a28 6 0.00
0x405a30 6 0.00
0x405a38 6 0.00
0x405a40 6 0.00
0x405a48 6 0.00
0x405a50 3 0.00
0x405a58 3 0.00
0x405a60 3 0.00
0x405a68 3 0.00
0x405a70 3 0.00
0x405a78 3 0.00
0x405a80 3 0.00
0x405a88 3 0.00
0x405a90 36 0.02
0x405a98 36 0.02
0x405aa0 36 0.02
0x405aa8 36 0.02
0x405ab0 36 0.02
0x405b70 36 0.02
0x405b78 36 0.02
0x405b80 36 0.02
0x405b88 36 0.02
0x405b90 36 0.02
0x405b98 36 0.02
0x405ba0 36 0.02
0x405ba8 36 0.02
0x405bb0 36 0.02
0x405bb8 36 0.02
0x405bc0 36 0.02
0x405bc8 36 0.02
0x405bd0 36 0.02
0x405c00 36 0.02
0x405c08 36 0.02
0x405c10 36 0.02
0x405c18 36 0.02
0x405c20 36 0.02
0x405c28 36 0.02
0x405c30 36 0.02
0x405c38 36 0.02
0x405c40 36 0.02
0x405c48 36 0.02
0x405c50 36 0.02
0x405c58 36 0.02
0x405c60 36 0.02
0x405c68 1 0.00
0x405c70 1 0.00
0x405c78 1 0.00
0x405c80 1 0.00
0x405cc8 1 0.00
0x405cd0 1 0.00
0x405d18 1 0.00
0x405d20 1 0.00
0x405d28 1 0.00
0x405d30 1 0.00
0x405d38 1 0.00
0x405d40 1 0.00
0x405d48 1 0.00
0x405d50 1 0.00
0x405d58 1 0.00
0x405d60 1 0.00
0x405da8 1 0.00
0x405db0 1 0.00
0x405db8 1 0.00
0x405dc0 1 0.00
0x405dc8 1 0.00
0x405dd0 1 0.00
0x405dd8 1 0.00
0x405f68 1 0.00
0x405f70 1 0.00
0x405f78 1 0.00
0x405f80 1 0.00
0x405f88 1 0.00
0x405f90 1 0.00
0x405f98 1 0.00
0x405fa0 1 0.00
0x405fa8 1 0.00
0x405fb0 1 0.00
0x405fb8 1 0.00
0x405fc0 1 0.00
0x405fc8 1 0.00
0x405fd0 1 0.00
0x405fd8 1 0.00
0x405fe0 1 0.00
0x406000 1 0.00
0x406008 1 0.00
0x406018 3 0.00
0x406020 3 0.00
0x406028 3 0.00
0x406030 3 0.00
0x406038 3 0.00
0x406040 3 0.00
0x406048 3 0.00
0x406050 3 0.00
0x406058 3 0.00
0x406060 3 0.00
0x406068 3 0.00
0x406070 3 0.00
0x406078 3 0.00
0x406080 3 0.00
0x406088 3 0.00
0x406090 3 0.00
0x406098 3 0.00
0x4060a0 3 0.00
0x4060a8 3 0.00
0x4060b0 3 0.00
0x4060b8 3 0.00
0x4060c0 3 0.00
0x4060c8 3 0.00
0x4060d0 3 0.00
0x4060d8 3 0.00
0x4060e0 3 0.00
0x4060e8 1 0.00
0x4060f0 1 0.00
0x4060f8 1 0.00
0x406100 1 0.00
0x406108 1 0.00
0x406110 1 0.00
0x406118 1 0.00
0x406120 1 0.00
0x406128 1 0.00
0x406170 1 0.00
0x4061c8 1 0.00
0x4061d0 1 0.00
0x4061d8 1 0.00
0x406200 1 0.00
0x406208 1 0.00
0x406210 1 0.00
0x406218 1 0.00
0x406220 1 0.00
0x406228 1 0.00
0x406230 1 0.00
0x406240 1 0.00
0x406248 1 0.00
0x406250 1 0.00
0x406258 1 0.00
0x406260 1 0.00
0x406268 1 0.00
0x406270 1 0.00
0x406320 1 0.00
0x406328 1 0.00
0x406330 1 0.00
0x406338 1 0.00
0x406340 1 0.00
0x406348 1 0.00
0x4063b0 1 0.00
0x4063b8 1 0.00
0x406448 1 0.00
0x406450 1 0.00
0x4064e0 1 0.00
0x4064e8 1 0.00
0x4064f0 1 0.00
0x406650 1 0.00
0x406658 1 0.00
0x406660 1 0.00
0x406668 1 0.00
0x406670 1 0.00
0x406678 1 0.00
0x406680 1 0.00
0x406740 1 0.00
0x406748 1 0.00
0x406750 1 0.00
0x406758 1 0.00
0x406760 3 0.00
0x406768 3 0.00
0x406770 3 0.00
0x406778 3 0.00
0x406780 3 0.00
0x4067c8 3 0.00
0x4067d0 3 0.00
0x4067d8 3 0.00
0x4067e0 3 0.00
0x4067e8 3 0.00
0x4067f0 3 0.00
0x4067f8 3 0.00
0x406800 3 0.00
0x406808 3 0.00
0x406810 3 0.00
0x406818 3 0.00
0x406820 3 0.00
0x406828 1 0.00
0x406830 1 0.00
0x406838 1 0.00
0x406900 30 0.01
0x406908 30 0.01
0x406910 30 0.01
0x406918 1 0.00
0x406920 1 0.00
0x406928 1 0.00
0x406930 1 0.00
0x406938 1 0.00
0x406940 1 0.00
0x406948 1 0.00
0x406950 1 0.00
0x406958 1 0.00
0x406960 1 0.00
0x406968 1 0.00
0x406970 1 0.00
0x406978 1 0.00
0x406980 1 0.00
0x406a20 1 0.00
0x406a28 1 0.00
0x406a30 1 0.00
0x406a38 1 0.00
0x406a40 1 0.00
0x406a88 1 0.00
0x406a90 1 0.00
0x406a98 1 0.00
0x406aa0 1 0.00
0x406aa8 1 0.00
0x406ab0 1 0.00
0x406ab8 1 0.00
0x406ac0 1 0.00
0x406ac8 1 0.00
0x406ad0 1 0.00
0x406b88 4 0.00
0x406b90 4 0.00
0x406b98 4 0.00
0x406ba0 4 0.00
0x406ba8 4 0.00
0x406bb0 4 0.00
0x406bb8 4 0.00
0x406bc0 4 0.00
0x406c18 4 0.00
0x406c20 4 0.00
0x406c28 4 0.00
0x406c30 4 0.00
0x406c38 4 0.00
0x406c40 4 0.00
0x406c48 4 0.00
0x406c68 4 0.00
0x406c70 4 0.00
0x406c78 4 0.00
0x406c80 4 0.00
0x406c88 4 0.00
0x406d18 4 0.00
0x406d20 4 0.00
0x406d28 4 0.00
0x406d30 4 0.00
0x406d38 4 0.00
0x406d40 4 0.00
0x406d48 4 0.00
0x406d50 4 0.00
0x406d58 27 0.01
0x406d60 27 0.01
0x406d68 27 0.01
0x406d70 27 0.01
0x406d78 27 0.01
0x406d80 27 0.01
0x406dc8 27 0.01
0x406dd0 27 0.01
0x406dd8 27 0.01
0x406de0 27 0.01
0x406de8 27 0.01
0x406df0 27 0.01
0x406df8 27 0.01
0x406e00 27 0.01
0x406e08 27 0.01
0x406e10 27 0.01
0x406e18 27 0.01
0x406e20 4 0.00
0x406e70 4 0.00
0x406e78 4 0.00
0x406e80 4 0.00
0x407408 30 0.01
0x407410 30 0.01
0x407418 30 0.01
0x407420 30 0.01
0x407428 30 0.01
0x407430 30 0.01
0x407438 30 0.01
0x407440 30 0.01
0x407448 30 0.01
0x407450 30 0.01
0x407458 30 0.01
0x407460 30 0.01
0x407468 30 0.01
0x407470 30 0.01
0x407478 30 0.01
0x407480 30 0.01
0x407488 30 0.01
0x407490 30 0.01
0x407498 30 0.01
0x4074a0 30 0.01
0x4074a8 30 0.01
0x4074b0 30 0.01
0x4074b8 30 0.01
0x4074c0 30 0.01
0x4074c8 30 0.01
0x4074d0 30 0.01
0x4074d8 30 0.01
0x4074e0 30 0.01
0x4074e8 30 0.01
0x4074f0 30 0.01
0x4074f8 30 0.01
0x407500 30 0.01
0x407508 30 0.01
0x407510 30 0.01
0x407518 30 0.01
0x407520 30 0.01
0x407528 30 0.01
0x407530 30 0.01
0x407538 30 0.01
0x407540 30 0.01
0x407548 30 0.01
0x407550 30 0.01
0x407558 30 0.01
0x407560 30 0.01
0x407568 30 0.01
0x407570 30 0.01
0x407578 112 0.05
0x407580 112 0.05
0x407588 112 0.05
0x407590 22 0.01
0x407598 22 0.01
0x4075a0 22 0.01
0x4075f0 22 0.01
0x4075f8 22 0.01
0x407600 22 0.01
0x407608 22 0.01
0x407610 22 0.01
0x407618 22 0.01
0x407620 22 0.01
0x407628 22 0.01
0x407630 22 0.01
0x407638 22 0.01
0x407640 22 0.01
0x407648 22 0.01
0x407650 22 0.01
0x407e50 25 0.01
0x407e58 25 0.01
0x407e60 25 0.01
0x407e68 25 0.01
0x407e70 25 0.01
0x407e78 25 0.01
0x407e80 25 0.01
0x407e88 25 0.01
0x407e90 25 0.01
0x407e98 25 0.01
0x407ea0 25 0.01
0x407ea8 25 0.01
0x407eb0 22 0.01
0x407eb8 22 0.01
0x407ec0 22 0.01
0x407ec8 3 0.00
0x407ed0 3 0.00
0x407ee8 3 0.00
0x407ef0 3 0.00
0x407ef8 3 0.00
0x407f00 3 0.00
0x407f08 3 0.00
0x408028 3 0.00
0x408030 25 0.01
0x408038 25 0.01
0x408040 25 0.01
0x408048 25 0.01
0x408050 25 0.01
0x408058 25 0.01
0x408060 25 0.01
0x408068 25 0.01
0x408070 25 0.01
0x408080 2 0.00
0x408088 2 0.00
0x408090 2 0.00
0x408098 2 0.00
0x4080a0 2 0.00
0x4080a8 2 0.00
0x4080b0 2 0.00
0x4080b8 2 0.00
0x4080c0 2 0.00
0x4080c8 2 0.00
0x4080d0 2 0.00
0x4080d8 2 0.00
0x4080e0 2 0.00
0x4080e8 2 0.00
0x4080f0 2 0.00
0x4080f8 2 0.00
0x408100 2 0.00
0x408108 2 0.00
0x408110 2 0.00
0x408118 2 0.00
0x408120 2 0.00
0x408128 2 0.00
0x408130 2 0.00
0x408138 2 0.00
0x408140 2 0.00
0x408148 2 0.00
0x408150 2 0.00
0x408158 2 0.00
0x408160 2 0.00
0x408168 2 0.00
0x408170 2 0.00
0x408178 2 0.00
0x408180 2 0.00
0x408188 2 0.00
0x408190 2 0.00
0x408198 2 0.00
0x4081a0 2 0.00
0x4081a8 2 0.00
0x4081b0 2 0.00
0x4081b8 2 0.00
0x4081c0 2 0.00
0x4081c8 2 0.00
0x4081d0 2 0.00
0x4081d8 2 0.00
0x4081e0 2 0.00
0x4081e8 2 0.00
0x408218 2 0.00
0x408220 2 0.00
0x4082b8 2 0.00
0x4082c0 2 0.00
0x4082c8 2 0.00
0x4082d0 2 0.00
0x4082d8 2 0.00
0x4082e0 2 0.00
0x4082e8 2 0.00
0x4082f0 2 0.00
0x4082f8 2 0.00
0x408300 2 0.00
0x408308 2 0.00
0x408310 2 0.00
0x408318 2 0.00
0x408320 2 0.00
0x4083d0 2 0.00
0x4083d8 2 0.00
0x4083e0 2 0.00
0x408450 2 0.00
0x408458 2 0.00
0x408460 2 0.00
0x408468 2 0.00
0x408470 2 0.00
0x408478 2 0.00
0x408480 2 0.00
0x408488 2 0.00
0x408490 2 0.00
0x408498 2 0.00
0x4084a0 2 0.00
0x4084a8 2 0.00
0x4084b0 2 0.00
0x4084c0 28 0.01
0x4084c8 28 0.01
0x4084d0 28 0.01
0x4084d8 28 0.01
0x4084e0 28 0.01
0x4084e8 28 0.01
0x4084f0 28 0.01
0x4084f8 28 0.01
0x408500 28 0.01
0x408508 28 0.01
0x408510 28 0.01
0x408518 28 0.01
0x408520 28 0.01
0x408528 28 0.01
0x408530 28 0.01
0x408538 28 0.01
0x408540 28 0.01
0x408548 28 0.01
0x408550 28 0.01
0x408558 28 0.01
0x408560 28 0.01
0x408568 28 0.01
0x408570 28 0.01
0x408578 28 0.01
0x408580 28 0.01
0x408588 28 0.01
0x408590 28 0.01
0x408848 28 0.01
0x408850 28 0.01
0x408858 28 0.01
0x408860 28 0.01
0x408868 28 0.01
0x408870 28 0.01
0x408880 15 0.01
0x408888 15 0.01
0x408890 15 0.01
0x408898 15 0.01
0x4088a0 15 0.01
0x4088a8 15 0.01
0x4088b0 15 0.01
0x4088c8 15 0.01
0x4088d0 15 0.01
0x4088d8 15 0.01
0x4088f8 15 0.01
0x408900 15 0.01
0x408908 15 0.01
0x408910 15 0.01
0x408938 15 0.01
0x408940 15 0.01
0x408948 15 0.01
0x408950 15 0.01
0x408958 15 0.01
0x408960 15 0.01
0x408968 15 0.01
0x408970 15 0.01
0x408978 15 0.01
0x408980 15 0.01
0x408988 15 0.01
0x4089d8 15 0.01
0x4089e0 15 0.01
0x4089e8 15 0.01
0x4089f0 15 0.01
0x4089f8 15 0.01
0x408e40 1 0.00
0x408e48 1 0.00
0x408e50 1 0.00
0x408e58 1 0.00
0x408e60 1 0.00
0x408e68 1 0.00
0x408e70 1 0.00
0x408e78 1 0.00
0x408e80 1 0.00
0x408e88 1 0.00
0x408e90 1 0.00
0x408e98 1 0.00
0x408ea0 1 0.00
0x408ea8 1 0.00
0x408eb0 1 0.00
0x408eb8 1 0.00
0x408ec0 1 0.00
0x408ec8 1 0.00
0x408ed8 1 0.00
0x408ee0 1 0.00
0x408ee8 1 0.00
0x408ef0 1 0.00
0x408ef8 1 0.00
0x408f00 1 0.00
0x408f08 1 0.00
0x408f10 1 0.00
0x408f18 1 0.00
0x408f20 1 0.00
0x408f28 1 0.00
0x408f30 1 0.00
0x408f38 1 0.00
0x408f40 1 0.00
0x408f48 1 0.00
0x408f50 1 0.00
0x408f58 1 0.00
0x408f60 1 0.00
0x408f68 1 0.00
0x408f70 1 0.00
0x408f78 1 0.00
0x408f80 1 0.00
0x408f88 1 0.00
0x408f90 1 0.00
0x408f98 1 0.00
0x408fa8 1 0.00
0x408fb0 1 0.00
0x408fb8 1 0.00
0x408fc0 1 0.00
0x408fc8 1 0.00
0x408fd0 1 0.00
0x408fd8 1 0.00
0x408fe0 1 0.00
0x408fe8 1 0.00
0x408ff0 1 0.00
0x408ff8 1 0.00
0x409000 1 0.00
0x409008 1 0.00
0x409010 1 0.00
0x409018 1 0.00
0x409020 1 0.00
0x409028 1 0.00
0x409058 1 0.00
0x409060 1 0.00
0x409070 1 0.00
0x409078 1 0.00
0x409090 1 0.00
0x409098 1 0.00
0x4090a0 1 0.00
0x4090a8 1 0.00
0x4090b8 1 0.00
0x4090c0 1 0.00
0x4090c8 1 0.00
0x4090d0 1 0.00
0x4090d8 1 0.00
0x409360 1 0.00
0x409368 1 0.00
0x409370 1 0.00
0x409378 1 0.00
0x409388 1 0.00
0x409390 1 0.00
0x409398 1 0.00
0x4093a0 1 0.00
0x4093a8 1 0.00
0x4093b0 1 0.00
0x4093b8 1 0.00
0x4093c0 1 0.00
0x4093c8 1 0.00
0x4093d0 1 0.00
0x4093d8 1 0.00
0x4093e0 1 0.00
0x4093e8 2 0.00
0x4093f0 2 0.00
0x4093f8 2 0.00
0x409400 2 0.00
0x409408 2 0.00
0x409410 2 0.00
0x409418 2 0.00
0x409420 2 0.00
0x409428 2 0.00
0x409430 2 0.00
0x409448 2 0.00
0x409450 2 0.00
0x409458 1 0.00
0x409460 1 0.00
0x409468 2 0.00
0x409470 2 0.00
0x409480 2 0.00
0x409488 2 0.00
0x409490 1 0.00
0x409498 1 0.00
0x4094a0 1 0.00
0x4094a8 1 0.00
0x4094b0 9 0.00
0x4094b8 9 0.00
0x4094c0 9 0.00
0x4094c8 1 0.00
0x4094d0 1 0.00
0x4094d8 1 0.00
0x4094e0 1 0.00
0x4094e8 1 0.00
0x409640 1 0.00
0x409648 1 0.00
0x409650 1 0.00
0x409658 1 0.00
0x409660 1 0.00
0x409668 1 0.00
0x409670 1 0.00
0x409678 1 0.00
0x409680 1 0.00
0x409688 1 0.00
0x409690 1 0.00
0x409698 1 0.00
0x4096a0 1 0.00
0x4096a8 1 0.00
0x4096b0 3 0.00
0x4096b8 3 0.00
0x4096c0 3 0.00
0x4096c8 3 0.00
0x4096d0 3 0.00
0x4096d8 3 0.00
0x4096e0 3 0.00
0x4096e8 3 0.00
0x4096f0 3 0.00
0x4096f8 3 0.00
0x409700 2 0.00
0x409708 3 0.00
0x409710 3 0.00
0x409718 3 0.00
0x409720 1 0.00
0x409728 1 0.00
0x409730 1 0.00
0x409740 1 0.00
0x409748 1 0.00
0x409750 1 0.00
0x409758 1 0.00
0x409760 1 0.00
0x409768 1 0.00
0x409770 1 0.00
0x409778 1 0.00
0x409780 1 0.00
0x409788 1 0.00
0x409790 1 0.00
0x409798 1 0.00
0x4097a0 1 0.00
0x4097a8 1 0.00
0x4097b0 1 0.00
0x4097b8 1 0.00
0x4097c0 1 0.00
0x4097c8 1 0.00
0x4097d0 1 0.00
0x4097d8 1 0.00
0x4097e0 1 0.00
0x4097e8 1 0.00
0x4097f0 1 0.00
0x4097f8 1 0.00
0x409800 1 0.00
0x409808 1 0.00
0x409810 1 0.00
0x409818 1 0.00
0x409820 1 0.00
0x409828 1 0.00
0x409830 1 0.00
0x409838 1 0.00
0x409840 1 0.00
0x409848 1 0.00
0x409850 1 0.00
0x409858 1 0.00
0x409860 1 0.00
0x409868 1 0.00
0x409870 1 0.00
0x409878 1 0.00
0x409880 1 0.00
0x409888 1 0.00
0x409890 1 0.00
0x409898 1 0.00
0x4098a0 1 0.00
0x4098a8 1 0.00
0x4098b0 1 0.00
0x4098b8 1 0.00
0x4098c0 1 0.00
0x4098c8 1 0.00
0x4098d0 1 0.00
0x4098d8 1 0.00
0x4098e0 1 0.00
0x4098e8 1 0.00
0x4099d0 1 0.00
0x4099d8 1 0.00
0x4099e0 1 0.00
0x4099e8 1 0.00
0x4099f0 1 0.00
0x4099f8 1 0.00
0x409a00 1 0.00
0x409a10 1 0.00
0x409a18 1 0.00
0x409a20 1 0.00
0x409a28 1 0.00
0x409a30 1 0.00
0x409a38 1 0.00
0x409a40 1 0.00
0x409a48 1 0.00
0x409a50 1 0.00
0x409a58 1 0.00
0x409a60 1 0.00
0x409a68 1 0.00
0x409a70 1 0.00
0x409a78 1 0.00
0x409a80 1 0.00
0x409a88 1 0.00
0x409a90 1 0.00
0x409d20 1 0.00
0x409d28 2 0.00
0x409d30 2 0.00
0x409d38 2 0.00
0x409d40 2 0.00
0x409d48 2 0.00
0x409d50 2 0.00
0x409d58 2 0.00
0x409d60 2 0.00
0x409d70 1 0.00
0x409d78 1 0.00
0x409d80 1 0.00
0x409d88 1 0.00
0x409d90 1 0.00
0x409d98 1 0.00
0x409db8 1 0.00
0x409dc0 3 0.00
0x409dc8 3 0.00
0x409dd0 3 0.00
0x409dd8 2 0.00
0x409de0 2 0.00
0x409de8 2 0.00
0x409df0 1 0.00
0x409df8 1 0.00
0x409e00 1 0.00
0x409e08 1 0.00
0x409e10 1 0.00
0x409e18 1 0.00
0x409f48 52 0.02
0x409f50 52 0.02
0x409f58 52 0.02
0x409f60 52 0.02
0x409f68 52 0.02
0x409f70 52 0.02
0x409f78 52 0.02
0x409f80 52 0.02
0x40a038 52 0.02
0x40a040 52 0.02
0x40a120 52 0.02
0x40a128 52 0.02
0x40a158 52 0.02
0x40a160 52 0.02
0x40a168 52 0.02
0x40a170 2 0.00
0x40a178 2 0.00
0x40a180 2 0.00
0x40a188 2 0.00
0x40a190 2 0.00
0x40a198 2 0.00
0x40a210 50 0.02
0x40a218 50 0.02
0x40a220 50 0.02
0x40a238 50 0.02
0x40a240 52 0.02
0x40a248 52 0.02
0x40a250 52 0.02
0x40a258 52 0.02
0x40a260 52 0.02
0x40a268 25 0.01
0x40a270 25 0.01
0x40a278 25 0.01
0x40a280 25 0.01
0x40a288 25 0.01
0x40a290 25 0.01
0x40a298 25 0.01
0x40a2a0 25 0.01
0x40a2a8 25 0.01
0x40a2b0 25 0.01
0x40a2b8 25 0.01
0x40a2c0 25 0.01
0x40a2c8 25 0.01
0x40a2d0 25 0.01
0x40a2d8 25 0.01
0x40a2e0 25 0.01
0x40a2e8 25 0.01
0x40a2f0 25 0.01
0x40a2f8 25 0.01
0x40a300 2 0.00
0x40a308 2 0.00
0x40a310 2 0.00
0x40a318 2 0.00
0x40a320 2 0.00
0x40a328 2 0.00
0x40a330 2 0.00
0x40a338 2 0.00
0x40a340 2 0.00
0x40a4f8 2 0.00
0x40a500 2 0.00
0x40a508 1 0.00
0x40a510 1 0.00
0x40a518 1 0.00
0x40a520 1 0.00
0x40a528 1 0.00
0x40a530 1 0.00
0x40a538 1 0.00
0x40a5a0 25 0.01
0x40a5a8 25 0.01
0x40a5b0 25 0.01
0x40a5b8 25 0.01
0x40a5c0 22 0.01
0x40a5c8 22 0.01
0x40a5d0 22 0.01
0x40a5d8 22 0.01
0x40a5f0 3 0.00
0x40a5f8 25 0.01
0x40a600 25 0.01
0x40a608 25 0.01
0x40a610 3 0.00
0x40a618 3 0.00
0x40a620 3 0.00
0x40a628 3 0.00
0x40a630 3 0.00
0x40a638 3 0.00
0x40a640 3 0.00
0x40a648 22 0.01
0x40a650 22 0.01
0x40a658 22 0.01
0x40a660 22 0.01
0x40a668 22 0.01
0x40a670 22 0.01
0x40a678 22 0.01
0x40a680 22 0.01
0x40a688 1 0.00
0x40a690 1 0.00
0x40a698 1 0.00
0x40a6a0 1 0.00
0x40a6a8 1 0.00
0x40a6b0 21 0.01
0x40a6b8 21 0.01
0x40a6c0 21 0.01
0x40a768 22 0.01
0x40a770 22 0.01
0x40a778 22 0.01
0x40a780 22 0.01
0x40a788 22 0.01
0x40a790 22 0.01
0x40a798 22 0.01
0x40a7a0 22 0.01
0x40a7a8 22 0.01
0x40a7b0 22 0.01
0x40a7b8 22 0.01
0x40a7c0 22 0.01
0x40a7c8 22 0.01
0x40a7e8 22 0.01
0x40a7f0 22 0.01
0x40a7f8 22 0.01
0x40a800 22 0.01
0x40a808 22 0.01
0x40a828 22 0.01
0x40a830 22 0.01
0x40a838 22 0.01
0x40a940 25 0.01
0x40a948 25 0.01
0x40a950 25 0.01
0x40a958 25 0.01
0x40a960 25 0.01
0x40a968 25 0.01
0x40a970 25 0.01
0x40a978 25 0.01
0x40a980 25 0.01
0x40a998 25 0.01
0x40a9a0 25 0.01
0x40a9a8 25 0.01
0x40a9b0 25 0.01
0x40a9b8 25 0.01
0x40a9c0 25 0.01
0x40a9c8 25 0.01
0x40a9d0 25 0.01
0x40a9d8 25 0.01
0x40a9e0 25 0.01
0x40a9e8 25 0.01
0x40ae80 294 0.14
0x40ae88 294 0.14
0x40ae90 294 0.14
0x40ae98 294 0.14
0x40aea0 294 0.14
0x40aea8 294 0.14
0x40aeb0 294 0.14
0x40aeb8 294 0.14
0x40aec0 294 0.14
0x40aec8 294 0.14
0x40aed0 294 0.14
0x40aed8 294 0.14
0x40aee0 294 0.14
0x40aee8 294 0.14
0x40aef0 294 0.14
0x40af08 294 0.14
0x40af10 294 0.14
0x40af18 294 0.14
0x40af20 294 0.14
0x40af28 294 0.14
0x40af30 294 0.14
0x40af38 294 0.14
0x40af60 294 0.14
0x40af68 294 0.14
0x40af70 294 0.14
0x40af78 294 0.14
0x40af80 294 0.14
0x40afb8 294 0.14
0x40afc0 294 0.14
0x40afc8 294 0.14
0x40afd0 2 0.00
0x40afd8 2 0.00
0x40afe0 2 0.00
0x40afe8 2 0.00
0x40aff0 2 0.00
0x40aff8 2 0.00
0x40b000 2 0.00
0x40b008 2 0.00
0x40b010 2 0.00
0x40b018 2 0.00
0x40b020 2 0.00
0x40b028 2 0.00
0x40b030 2 0.00
0x40b038 2 0.00
0x40b040 2 0.00
0x40b048 2 0.00
0x40b050 2 0.00
0x40b058 2 0.00
0x40b060 2 0.00
0x40b068 2 0.00
0x40b070 2 0.00
0x40b078 2 0.00
0x40b080 294 0.14
0x40b088 294 0.14
0x40b090 2 0.00
0x40b098 2 0.00
0x40b0a0 2 0.00
0x40b0a8 1 0.00
0x40b0b0 1 0.00
0x40b0c8 1 0.00
0x40b0d0 1 0.00
0x40b0d8 1 0.00
0x40b0e0 1 0.00
0x40b0e8 1 0.00
0x40b0f0 1 0.00
0x40b0f8 1 0.00
0x40b130 1 0.00
0x40b138 1 0.00
0x40b140 1 0.00
0x40b168 294 0.14
0x40b170 294 0.14
0x40b178 2 0.00
0x40b180 2 0.00
0x40b188 2 0.00
0x40b190 2 0.00
0x40b198 2 0.00
0x40b1a0 294 0.14
0x40b1a8 294 0.14
0x40b1d8 294 0.14
0x40b1e0 291 0.14
0x40b1e8 291 0.14
0x40b1f0 291 0.14
0x40b1f8 291 0.14
0x40b200 291 0.14
0x40b208 291 0.14
0x40b210 291 0.14
0x40b218 291 0.14
0x40b220 291 0.14
0x40b248 291 0.14
0x40b250 291 0.14
0x40b258 291 0.14
0x40b260 291 0.14
0x40b268 291 0.14
0x40b270 291 0.14
0x40b278 291 0.14
0x40b280 291 0.14
0x40b288 291 0.14
0x40b290 291 0.14
0x40b298 22 0.01
0x40b2a0 25 0.01
0x40b2a8 25 0.01
0x40b2b0 25 0.01
0x40b2b8 23 0.01
0x40b2c0 23 0.01
0x40b2c8 23 0.01
0x40b2d0 23 0.01
0x40b2d8 25 0.01
0x40b2e0 25 0.01
0x40b2f0 25 0.01
0x40b2f8 25 0.01
0x40b300 25 0.01
0x40b308 25 0.01
0x40b310 25 0.01
0x40b318 25 0.01
0x40b320 24 0.01
0x40b328 24 0.01
0x40b330 24 0.01
0x40b338 24 0.01
0x40b340 24 0.01
0x40b348 25 0.01
0x40b350 25 0.01
0x40b358 25 0.01
0x40b360 25 0.01
0x40b368 269 0.13
0x40b370 269 0.13
0x40b378 25 0.01
0x40b380 294 0.14
0x40b388 294 0.14
0x40b390 294 0.14
0x40b398 294 0.14
0x40b3a0 294 0.14
0x40b3a8 294 0.14
0x40b3b0 294 0.14
0x40b948 3 0.00
0x40b950 3 0.00
0x40b958 3 0.00
0x40b960 3 0.00
0x40b968 3 0.00
0x40b970 3 0.00
0x40b978 3 0.00
0x40b980 3 0.00
0x40b988 3 0.00
0x40b990 3 0.00
0x40b998 3 0.00
0x40b9a0 3 0.00
0x40b9a8 3 0.00
0x40b9b0 3 0.00
0x40b9b8 3 0.00
0x40b9c0 2 0.00
0x40b9c8 2 0.00
0x40b9d0 2 0.00
0x40b9d8 2 0.00
0x40b9e0 2 0.00
0x40b9e8 2 0.00
0x40b9f0 2 0.00
0x40b9f8 2 0.00
0x40ba00 2 0.00
0x40ba08 2 0.00
0x40ba18 2 0.00
0x40ba20 2 0.00
0x40ba28 2 0.00
0x40ba30 2 0.00
0x40ba38 2 0.00
0x40ba40 2 0.00
0x40ba48 2 0.00
0x40ba50 2 0.00
0x40ba58 2 0.00
0x40ba60 1 0.00
0x40ba68 1 0.00
0x40ba70 1 0.00
0x40ba78 1 0.00
0x40ba80 1 0.00
0x40ba88 1 0.00
0x40ba90 1 0.00
0x40ba98 1 0.00
0x40baa0 1 0.00
0x40baa8 1 0.00
0x40bab0 1 0.00
0x40bab8 1 0.00
0x40bac0 1 0.00
0x40bac8 1 0.00
0x40bad0 1 0.00
0x40bad8 1 0.00
0x40bb28 1 0.00
0x40bb30 1 0.00
0x40bb38 1 0.00
0x40bb40 1 0.00
0x40bb48 1 0.00
0x40bb50 1 0.00
0x40bb58 1 0.00
0x40bb70 1 0.00
0x40bb78 1 0.00
0x40bb80 1 0.00
0x40bb88 1 0.00
0x40bb90 1 0.00
0x40bb98 1 0.00
0x40bba0 1 0.00
0x40bba8 1 0.00
0x40bbb0 1 0.00
0x40bbb8 1 0.00
0x40bbc0 1 0.00
0x40bbc8 1 0.00
0x40bbd0 1 0.00
0x40bc20 1 0.00
0x40bc28 1 0.00
0x40bc30 1 0.00
0x40bc38 1 0.00
0x40bc40 1 0.00
0x40bc48 1 0.00
0x40bc50 1 0.00
0x40bc58 1 0.00
0x40bc60 1 0.00
0x40bc68 1 0.00
0x40bc70 1 0.00
0x40bc78 1 0.00
0x40bc80 1 0.00
0x40bc88 1 0.00
0x40bc90 1 0.00
0x40bc98 1 0.00
0x40bca0 1 0.00
0x40bca8 1 0.00
0x40bcb0 1 0.00
0x40bcb8 1 0.00
0x40bcc0 1 0.00
0x40bcc8 1 0.00
0x40bcd0 1 0.00
0x40bcd8 1 0.00
0x40bce0 1 0.00
0x40bce8 1 0.00
0x40bcf0 1 0.00
0x40bcf8 1 0.00
0x40bdb0 1 0.00
0x40bdb8 1 0.00
0x40bdc0 1 0.00
0x40bdc8 1 0.00
0x40bdd0 1 0.00
0x40bf20 1 0.00
0x40bf28 1 0.00
0x40bf30 1 0.00
0x40bf38 1 0.00
0x40bf40 1 0.00
0x40bf48 1 0.00
0x40bf50 1 0.00
0x40bf58 1 0.00
0x40bf60 1 0.00
0x40bf68 1 0.00
0x40bf70 1 0.00
0x40bf78 1 0.00
0x40bf80 1 0.00
0x40bf88 1 0.00
0x40bf90 1 0.00
0x40bf98 1 0.00
0x40bfa0 1 0.00
0x40bfa8 1 0.00
0x40bfb0 1 0.00
0x40bfb8 1 0.00
0x40bfc0 1 0.00
0x40bfc8 1 0.00
0x40bfd0 1 0.00
0x40bfd8 1 0.00
0x40bfe0 1 0.00
0x40bfe8 1 0.00
0x40bff0 1 0.00
0x40bff8 1 0.00
0x40c000 1 0.00
0x40c008 1 0.00
0x40c010 3 0.00
0x40c018 3 0.00
0x40c020 3 0.00
0x40c028 3 0.00
0x40c030 1 0.00
0x40c038 1 0.00
0x40c040 1 0.00
0x40c058 1 0.00
0x40c060 1 0.00
0x40c068 1 0.00
0x40c070 1 0.00
0x40c078 1 0.00
0x40c080 1 0.00
0x40c088 1 0.00
0x40c090 1 0.00
0x40c098 1 0.00
0x40c0a0 1 0.00
0x40c0a8 1 0.00
0x40c0b0 1 0.00
0x40c0b8 1 0.00
0x40c0c0 1 0.00
0x40c0c8 1 0.00
0x40c0d0 1 0.00
0x40c0d8 1 0.00
0x40c0e0 1 0.00
0x40c0e8 1 0.00
0x40c0f0 1 0.00
0x40c0f8 1 0.00
0x40c100 1 0.00
0x40c108 1 0.00
0x40c110 1 0.00
0x40c118 1 0.00
0x40c120 1 0.00
0x40c128 1 0.00
0x40c130 1 0.00
0x40c238 2 0.00
0x40c240 2 0.00
0x40c248 2 0.00
0x40c250 2 0.00
0x40c258 2 0.00
0x40c260 2 0.00
0x40c268 2 0.00
0x40c270 2 0.00
0x40c278 2 0.00
0x40c280 2 0.00
0x40c288 2 0.00
0x40c290 2 0.00
0x40c2b8 2 0.00
0x40c2c0 2 0.00
0x40c2f0 2 0.00
0x40c2f8 2 0.00
0x40c300 2 0.00
0x40c308 2 0.00
0x40c340 22 0.01
0x40c348 22 0.01
0x40c350 22 0.01
0x40c358 22 0.01
0x40c360 22 0.01
0x40c368 22 0.01
0x40c370 22 0.01
0x40c378 22 0.01
0x40c380 22 0.01
0x40c388 22 0.01
0x40c390 22 0.01
0x40c398 22 0.01
0x40c3a0 22 0.01
0x40c3a8 22 0.01
0x40c3b0 22 0.01
0x40c3b8 22 0.01
0x40c3d8 22 0.01
0x40c3e0 22 0.01
0x40c3e8 22 0.01
0x40c3f0 22 0.01
0x40c3f8 22 0.01
0x40c400 22 0.01
0x40c408 22 0.01
0x40c410 22 0.01
0x40c418 22 0.01
0x40c420 22 0.01
0x40c428 22 0.01
0x40c430 22 0.01
0x40c4b0 2 0.00
0x40c4b8 2 0.00
0x40c4c0 2 0.00
0x40c4c8 2 0.00
0x40c4d0 2 0.00
0x40c4d8 2 0.00
0x40c950 77 0.04
0x40c958 77 0.04
0x40c960 77 0.04
0x40c968 77 0.04
0x40c970 77 0.04
0x40c978 77 0.04
0x40c980 77 0.04
0x40c9b0 77 0.04
0x40c9b8 77 0.04
0x40c9c0 75 0.04
0x40c9c8 75 0.04
0x40c9d0 75 0.04
0x40c9d8 75 0.04
0x40c9e0 75 0.04
0x40c9e8 75 0.04
0x40c9f0 75 0.04
0x40ca28 75 0.04
0x40ca30 75 0.04
0x40cad0 4 0.00
0x40cad8 4 0.00
0x40cae0 4 0.00
0x40cae8 4 0.00
0x40cb18 4 0.00
0x40cb20 4 0.00
0x40cb28 4 0.00
0x40cb30 4 0.00
0x40cb38 8 0.00
0x40cb40 8 0.00
0x40cb48 8 0.00
0x40cb50 8 0.00
0x40cb58 8 0.00
0x40cb60 4 0.00
0x40cb68 4 0.00
0x40cb70 4 0.00
0x40cb88 4 0.00
0x40cb90 4 0.00
0x40cbb0 4 0.00
0x40cbb8 4 0.00
0x40cbc0 3 0.00
0x40cbc8 3 0.00
0x40cbd0 3 0.00
0x40cbd8 3 0.00
0x40cbe0 3 0.00
0x40cbf8 1 0.00
0x40cc00 1 0.00
0x40cc08 4 0.00
0x40cc10 4 0.00
0x40cc20 79 0.04
0x40cc28 79 0.04
0x40cc30 79 0.04
0x40cc38 79 0.04
0x40cc40 100 0.05
0x40cc48 100 0.05
0x40cc50 75 0.04
0x40cc58 63 0.03
0x40cc60 63 0.03
0x40cc68 63 0.03
0x40cc70 42 0.02
0x40cc78 42 0.02
0x40cc80 42 0.02
0x40cc88 42 0.02
0x40cc90 42 0.02
0x40cc98 42 0.02
0x40cca0 65 0.03
0x40cca8 65 0.03
0x40ccb0 65 0.03
0x40ccb8 65 0.03
0x40ccc0 65 0.03
0x40ccc8 65 0.03
0x40ccd0 65 0.03
0x40ccd8 65 0.03
0x40cce0 42 0.02
0x40cce8 42 0.02
0x40ccf0 42 0.02
0x40ccf8 42 0.02
0x40cd00 42 0.02
0x40cd08 42 0.02
0x40cd10 42 0.02
0x40cd18 42 0.02
0x40cd20 42 0.02
0x40cd28 28 0.01
0x40cd30 19 0.01
0x40cd38 19 0.01
0x40cd40 19 0.01
0x40cd48 10 0.00
0x40cd50 9 0.00
0x40cd58 9 0.00
0x40cd60 9 0.00
0x40cd68 5 0.00
0x40cd70 4 0.00
0x40cd78 4 0.00
0x40cd80 4 0.00
0x40cd98 25 0.01
0x40cda0 25 0.01
0x40cda8 23 0.01
0x40cdb0 79 0.04
0x40cdb8 79 0.04
0x40cdc0 30 0.01
0x40cdc8 30 0.01
0x40cdd0 30 0.01
0x40cdd8 30 0.01
0x40cde0 30 0.01
0x40cde8 30 0.01
0x40cdf0 30 0.01
0x40cdf8 30 0.01
0x40ce00 30 0.01
0x40ce08 30 0.01
0x40ce10 30 0.01
0x40ce18 30 0.01
0x40ce20 30 0.01
0x40ce28 30 0.01
0x40ce30 30 0.01
0x40ce38 30 0.01
0x40ce40 30 0.01
0x40ce48 30 0.01
0x40ce50 30 0.01
0x40ce58 30 0.01
0x40ce60 30 0.01
0x40ce68 30 0.01
0x40ce80 30 0.01
0x40ce88 30 0.01
0x40ce90 30 0.01
0x40ce98 30 0.01
0x40cea0 30 0.01
0x40cea8 30 0.01
0x40ceb0 30 0.01
0x40ced8 30 0.01
0x40cee0 30 0.01
0x40cee8 30 0.01
0x40cef0 30 0.01
0x40cef8 30 0.01
0x40cf00 30 0.01
0x40cf08 30 0.01
0x40cf10 30 0.01
0x40cf18 30 0.01
0x40cf20 30 0.01
0x40cf28 30 0.01
0x40cf30 30 0.01
0x40cf38 30 0.01
0x40cf40 30 0.01
0x40cf48 30 0.01
0x40cf50 30 0.01
0x40cf58 30 0.01
0x40cf60 30 0.01
0x40cf78 30 0.01
0x40cf80 30 0.01
0x40cf88 30 0.01
0x40cf90 30 0.01
0x40cf98 30 0.01
0x40cfa0 30 0.01
0x40cfa8 30 0.01
0x40cfb0 30 0.01
0x40cfb8 30 0.01
0x40cfc0 30 0.01
0x40cfc8 30 0.01
0x40cfd0 1 0.00
0x40cfd8 1 0.00
0x40cfe0 1 0.00
0x40cfe8 30 0.01
0x40cff0 30 0.01
0x40cff8 30 0.01
0x40d0d0 30 0.01
0x40d0d8 30 0.01
0x40d0e0 30 0.01
0x40d0e8 30 0.01
0x40d0f0 30 0.01
0x40d0f8 30 0.01
0x40d100 30 0.01
0x40d108 30 0.01
0x40d110 30 0.01
0x40d118 30 0.01
0x40d120 30 0.01
0x40d128 30 0.01
0x40d130 30 0.01
0x40d138 30 0.01
0x40d140 30 0.01
0x40d178 30 0.01
0x40d180 30 0.01
0x40d200 30 0.01
0x40d208 30 0.01
0x40d210 30 0.01
0x40d218 30 0.01
0x40d220 30 0.01
0x40d228 30 0.01
0x40d230 30 0.01
0x40d238 30 0.01
0x40d248 30 0.01
0x40d250 30 0.01
0x40d258 30 0.01
0x40d260 30 0.01
0x40d268 30 0.01
0x40d270 30 0.01
0x40d278 30 0.01
0x40d280 30 0.01
0x40d288 176 0.08
0x40d290 176 0.08
0x40d298 176 0.08
0x40d2a0 176 0.08
0x40d2a8 176 0.08
0x40d2b0 176 0.08
0x40d2b8 176 0.08
0x40d2c0 176 0.08
0x40d2c8 176 0.08
0x40d2d0 30 0.01
0x40d318 30 0.01
0x40d320 30 0.01
0x40d328 30 0.01
0x40d370 30 0.01
0x40d378 30 0.01
0x40d420 30 0.01
0x40d428 30 0.01
0x40d438 30 0.01
0x40d440 30 0.01
0x40d448 30 0.01
0x40d450 30 0.01
0x40d458 30 0.01
0x40d460 30 0.01
0x40d468 30 0.01
0x40d470 30 0.01
0x40d478 30 0.01
0x40d480 30 0.01
0x40d488 30 0.01
0x40d490 30 0.01
0x40d498 30 0.01
0x40d640 30 0.01
0x40d648 30 0.01
0x40d650 30 0.01
0x40d658 30 0.01
0x40d660 30 0.01
0x40d668 30 0.01
0x40d670 30 0.01
0x40d678 30 0.01
0x40d680 30 0.01
0x40d688 30 0.01
0x40d690 30 0.01
0x40d698 30 0.01
0x40d6a0 30 0.01
0x40d6a8 30 0.01
0x40d6b0 30 0.01
0x40d6b8 30 0.01
0x40d6c0 30 0.01
0x40d6c8 30 0.01
0x40d6d0 30 0.01
0x40d6d8 30 0.01
0x40d6e0 30 0.01
0x40d6e8 30 0.01
0x40d6f0 30 0.01
0x40d6f8 30 0.01
0x40d700 30 0.01
0x40d708 30 0.01
0x40d710 30 0.01
0x40d718 30 0.01
0x40d720 30 0.01
0x40d728 30 0.01
0x40d730 30 0.01
0x40d738 30 0.01
0x40d740 30 0.01
0x40d748 30 0.01
0x40d750 30 0.01
0x40d758 30 0.01
0x40d760 30 0.01
0x40d768 30 0.01
0x40d770 30 0.01
0x40d778 30 0.01
0x40d780 30 0.01
0x40d788 30 0.01
0x40d790 30 0.01
0x40d798 30 0.01
0x40d7a0 30 0.01
0x40d7a8 30 0.01
0x40d7b0 30 0.01
0x40d7b8 30 0.01
0x40d7c0 30 0.01
0x40d7c8 30 0.01
0x40d7d0 30 0.01
0x40d7d8 30 0.01
0x40d7e0 30 0.01
0x40d7e8 30 0.01
0x40d7f0 30 0.01
0x40d808 30 0.01
0x40d810 30 0.01
0x40d818 30 0.01
0x40d860 30 0.01
0x40dcd0 30 0.01
0x40dcd8 30 0.01
0x40dce0 30 0.01
0x40dce8 30 0.01
0x40dcf0 30 0.01
0x40dcf8 30 0.01
0x40dd00 30 0.01
0x40dd08 30 0.01
0x40dd10 30 0.01
0x40dd18 30 0.01
0x40dd20 30 0.01
0x40dd28 27 0.01
0x40dd30 27 0.01
0x40dd38 3 0.00
0x40dd40 3 0.00
0x40dd78 27 0.01
0x40dd80 30 0.01
0x40dd88 30 0.01
0x40dd90 30 0.01
0x40dd98 30 0.01
0x40dda0 30 0.01
0x40dda8 23 0.01
0x40ddb0 23 0.01
0x40ddb8 23 0.01
0x40ddc0 23 0.01
0x40ddc8 23 0.01
0x40ddd0 23 0.01
0x40ddd8 4 0.00
0x40dde0 23 0.01
0x40dde8 23 0.01
0x40ddf0 23 0.01
0x40ddf8 23 0.01
0x40de00 21 0.01
0x40de08 21 0.01
0x40de10 21 0.01
0x40de18 21 0.01
0x40de20 21 0.01
0x40de30 21 0.01
0x40de38 21 0.01
0x40de40 21 0.01
0x40de48 26 0.01
0x40de50 26 0.01
0x40de58 26 0.01
0x40de60 5 0.00
0x40de68 5 0.00
0x40de70 21 0.01
0x40de78 2 0.00
0x40de80 2 0.00
0x40de88 23 0.01
0x40de90 23 0.01
0x40de98 23 0.01
0x40dea0 30 0.01
0x40dea8 30 0.01
0x40e078 30 0.01
0x40e080 30 0.01
0x40e088 30 0.01
0x40e090 30 0.01
0x40e098 30 0.01
0x40e0a0 30 0.01
0x40e0a8 30 0.01
0x40e3f0 30 0.01
0x40e3f8 30 0.01
0x40e400 30 0.01
0x40e408 30 0.01
0x40e410 30 0.01
0x40e418 30 0.01
0x40e420 30 0.01
0x40e428 30 0.01
0x40e430 30 0.01
0x40e438 64 0.03
0x40e440 64 0.03
0x40e450 64 0.03
0x40e458 64 0.03
0x40e460 64 0.03
0x40e468 34 0.02
0x40e470 34 0.02
0x40e478 34 0.02
0x40e480 34 0.02
0x40e488 30 0.01
0x40e490 30 0.01
0x40e498 30 0.01
0x40e4a0 30 0.01
0x40e4b0 30 0.01
0x40e4b8 30 0.01
0x40e4c0 30 0.01
0x40e4c8 30 0.01
0x40e4d0 30 0.01
0x40e4d8 30 0.01
0x40e4e0 30 0.01
0x40e4e8 30 0.01
0x40e4f0 30 0.01
0x40e4f8 30 0.01
0x40e500 30 0.01
0x40e508 30 0.01
0x40e510 30 0.01
0x40e518 30 0.01
0x40e520 30 0.01
0x40e528 30 0.01
0x40e530 30 0.01
0x40e538 30 0.01
0x40e540 30 0.01
0x40e548 30 0.01
0x40e550 30 0.01
0x40e558 30 0.01
0x40e560 30 0.01
0x40e568 30 0.01
0x40e570 30 0.01
0x40e578 30 0.01
0x40e580 30 0.01
0x40e588 30 0.01
0x40e590 30 0.01
0x40e598 30 0.01
0x40e5a0 30 0.01
0x40e5a8 30 0.01
0x40e5b0 30 0.01
0x40e5b8 30 0.01
0x40e5c0 30 0.01
0x40e5c8 30 0.01
0x40e5d0 3 0.00
0x40e5d8 3 0.00
0x40e5e0 3 0.00
0x40e5e8 3 0.00
0x40e5f0 3 0.00
0x40e5f8 3 0.00
0x40e600 3 0.00
0x40e608 3 0.00
0x40e648 3 0.00
0x40e650 3 0.00
0x40e658 3 0.00
0x40e660 3 0.00
0x40e668 3 0.00
0x40e670 3 0.00
0x40e678 3 0.00
0x40e680 3 0.00
0x40e6c0 3 0.00
0x40e6c8 3 0.00
0x40e6d0 3 0.00
0x40e6d8 3 0.00
0x40e6e0 3 0.00
0x40e6e8 3 0.00
0x40e6f0 3 0.00
0x40e6f8 3 0.00
0x40e738 30 0.01
0x40e740 30 0.01
0x40e748 30 0.01
0x40e750 30 0.01
0x40e758 30 0.01
0x40e760 30 0.01
0x40e768 30 0.01
0x40e770 30 0.01
0x40e778 30 0.01
0x40e780 30 0.01
0x40e788 30 0.01
0x40e790 30 0.01
0x40e798 30 0.01
0x40e7a0 30 0.01
0x40e808 30 0.01
0x40e868 30 0.01
0x40e870 30 0.01
0x40e878 30 0.01
0x40e888 30 0.01
0x40e890 30 0.01
0x40e898 30 0.01
0x40e8a0 30 0.01
0x40e8a8 30 0.01
0x40e8b0 30 0.01
0x40e8b8 30 0.01
0x40e8c0 30 0.01
0x40e8c8 30 0.01
0x40e8d0 37 0.02
0x40e8d8 37 0.02
0x40e8e0 37 0.02
0x40e8e8 37 0.02
0x40e8f0 35 0.02
0x40e8f8 35 0.02
0x40e900 35 0.02
0x40e908 35 0.02
0x40e910 35 0.02
0x40e918 35 0.02
0x40e920 35 0.02
0x40e928 35 0.02
0x40e930 35 0.02
0x40e938 35 0.02
0x40e940 4 0.00
0x40e948 4 0.00
0x40e950 4 0.00
0x40e958 4 0.00
0x40e960 4 0.00
0x40e968 4 0.00
0x40e970 4 0.00
0x40e978 35 0.02
0x40e980 35 0.02
0x40e988 35 0.02
0x40e990 35 0.02
0x40e998 35 0.02
0x40e9a0 35 0.02
0x40e9a8 35 0.02
0x40e9b0 2 0.00
0x40e9b8 2 0.00
0x40e9c0 2 0.00
0x40e9c8 2 0.00
0x40e9d0 2 0.00
0x40e9d8 2 0.00
0x40e9e0 2 0.00
0x40e9e8 35 0.02
0x40e9f0 35 0.02
0x40e9f8 35 0.02
0x40ea00 35 0.02
0x40ea08 35 0.02
0x40ea10 35 0.02
0x40ea18 35 0.02
0x40ea20 2 0.00
0x40ea28 2 0.00
0x40ea30 2 0.00
0x40ea38 2 0.00
0x40ea40 2 0.00
0x40ea48 2 0.00
0x40ea50 2 0.00
0x40ea58 35 0.02
0x40ea60 65 0.03
0x40ea68 65 0.03
0x40ea70 37 0.02
0x40ea78 30 0.01
0x40ea80 30 0.01
0x40ea88 30 0.01
0x40ea90 30 0.01
0x40ea98 30 0.01
0x40eaa0 30 0.01
0x40eaa8 30 0.01
0x40eab0 30 0.01
0x40eab8 30 0.01
0x40eac0 30 0.01
0x40eac8 31 0.01
0x40ead0 31 0.01
0x40ead8 31 0.01
0x40eae0 31 0.01
0x40eae8 31 0.01
0x40eaf0 31 0.01
0x40eaf8 31 0.01
0x40eb00 31 0.01
0x40eb08 31 0.01
0x40eb38 31 0.01
0x40eb40 31 0.01
0x40eb48 31 0.01
0x40eb50 31 0.01
0x40eb58 31 0.01
0x40eb60 31 0.01
0x40eb68 31 0.01
0x40eb70 31 0.01
0x40eb78 31 0.01
0x40eb80 31 0.01
0x40eb88 31 0.01
0x40eb90 31 0.01
0x40eb98 31 0.01
0x40eba0 31 0.01
0x40eba8 31 0.01
0x40ebb0 31 0.01
0x40ebb8 31 0.01
0x40ebc0 31 0.01
0x40ebc8 31 0.01
0x40ebd0 31 0.01
0x40ebd8 31 0.01
0x40ebe0 31 0.01
0x40ebe8 31 0.01
0x40ebf0 31 0.01
0x40ebf8 31 0.01
0x40ec00 31 0.01
0x40ec68 31 0.01
0x40ec70 31 0.01
0x40ec78 31 0.01
0x40ec80 31 0.01
0x40ec88 2 0.00
0x40ec90 2 0.00
0x40ec98 2 0.00
0x40eca0 2 0.00
0x40eca8 2 0.00
0x40ecb0 2 0.00
0x40ecb8 2 0.00
0x40ecc0 2 0.00
0x40ecc8 31 0.01
0x40ecd0 31 0.01
0x40ecd8 31 0.01
0x40ece0 31 0.01
0x40ee68 31 0.01
0x40ee70 31 0.01
0x40eea8 31 0.01
0x40eeb0 31 0.01
0x40eeb8 31 0.01
0x40eec0 31 0.01
0x40eec8 31 0.01
0x40eed0 78 0.04
0x40eed8 78 0.04
0x40eee0 78 0.04
0x40eee8 78 0.04
0x40eef0 47 0.02
0x40eef8 47 0.02
0x40ef00 47 0.02
0x40ef08 47 0.02
0x40ef10 47 0.02
0x40ef18 47 0.02
0x40ef20 47 0.02
0x40ef58 47 0.02
0x40ef60 47 0.02
0x40ef68 47 0.02
0x40ef70 47 0.02
0x40ef78 47 0.02
0x40ef80 47 0.02
0x40ef88 47 0.02
0x40ef90 78 0.04
0x40ef98 78 0.04
0x40efa0 78 0.04
0x40efa8 78 0.04
0x40efb0 78 0.04
0x40efe0 78 0.04
0x40efe8 78 0.04
0x40eff0 78 0.04
0x40eff8 78 0.04
0x40f000 78 0.04
0x40f008 31 0.01
0x40f010 31 0.01
0x40f018 31 0.01
0x40f020 31 0.01
0x40f028 31 0.01
0x40f030 3 0.00
0x40f038 3 0.00
0x40f040 3 0.00
0x40f048 3 0.00
0x40f050 3 0.00
0x40f058 31 0.01
0x40f060 31 0.01
0x40f068 31 0.01
0x40f070 31 0.01
0x40f078 31 0.01
0x40f080 31 0.01
0x40f088 31 0.01
0x40f090 31 0.01
0x40f098 31 0.01
0x40f0a0 31 0.01
0x40f110 31 0.01
0x40f118 227 0.11
0x40f120 227 0.11
0x40f128 227 0.11
0x40f130 227 0.11
0x40f138 227 0.11
0x40f140 227 0.11
0x40f148 167 0.08
0x40f150 167 0.08
0x40f158 167 0.08
0x40f160 167 0.08
0x40f168 167 0.08
0x40f170 167 0.08
0x40f178 167 0.08
0x40f180 167 0.08
0x40f1e8 167 0.08
0x40f248 167 0.08
0x40f250 167 0.08
0x40f260 227 0.11
0x40f268 227 0.11
0x40f270 227 0.11
0x40f278 227 0.11
0x40f280 227 0.11
0x40f288 227 0.11
0x40f290 227 0.11
0x40f298 227 0.11
0x40f2a0 31 0.01
0x40f2a8 31 0.01
0x40f2b0 31 0.01
0x40f2b8 11 0.01
0x40f2c0 10 0.00
0x40f2c8 10 0.00
0x40f2d0 10 0.00
0x40f2d8 10 0.00
0x40f2e0 10 0.00
0x40f2e8 30 0.01
0x40f2f0 30 0.01
0x40f2f8 30 0.01
0x40f300 30 0.01
0x40f308 30 0.01
0x40f310 31 0.01
0x40f318 31 0.01
0x40f320 31 0.01
0x40f328 11 0.01
0x40f330 10 0.00
0x40f338 10 0.00
0x40f340 10 0.00
0x40f348 10 0.00
0x40f350 10 0.00
0x40f358 30 0.01
0x40f360 30 0.01
0x40f368 30 0.01
0x40f370 30 0.01
0x40f378 30 0.01
0x40f380 30 0.01
0x40f388 30 0.01
0x40f390 30 0.01
0x40f398 30 0.01
0x40f3a0 30 0.01
0x40f3a8 30 0.01
0x40f3b0 12 0.01
0x40f3b8 12 0.01
0x40f3c0 12 0.01
0x40f3c8 12 0.01
0x40f3d0 12 0.01
0x40f3d8 12 0.01
0x40f3e0 12 0.01
0x40f3e8 12 0.01
0x40f3f0 12 0.01
0x40f3f8 12 0.01
0x40f400 12 0.01
0x40f408 12 0.01
0x40f410 12 0.01
0x40f418 12 0.01
0x40f420 12 0.01
0x40f428 12 0.01
0x40f430 12 0.01
0x40f438 12 0.01
0x40f440 12 0.01
0x40f448 12 0.01
0x40f450 12 0.01
0x40f458 12 0.01
0x40f4c0 12 0.01
0x40f4c8 12 0.01
0x40f4d0 12 0.01
0x40f4d8 12 0.01
0x40f518 12 0.01
0x40f520 12 0.01
0x40f528 12 0.01
0x40f530 12 0.01
0x40f538 18 0.01
0x40f540 18 0.01
0x40f548 18 0.01
0x40f550 18 0.01
0x40f558 18 0.01
0x40f560 18 0.01
0x40f568 18 0.01
0x40f570 18 0.01
0x40f578 18 0.01
0x40f580 18 0.01
0x40f6b0 18 0.01
0x40f6b8 18 0.01
0x40f6c0 30 0.01
0x40f6c8 30 0.01
0x40f700 31 0.01
0x40f708 31 0.01
0x40f710 31 0.01
0x40f718 31 0.01
0x40f720 31 0.01
0x40f728 31 0.01
0x40f730 31 0.01
0x40f738 31 0.01
0x40f740 31 0.01
0x40f748 30 0.01
0x40f750 30 0.01
0x40f758 30 0.01
0x40f760 30 0.01
0x40f768 30 0.01
0x40f770 30 0.01
0x40f778 30 0.01
0x40f780 30 0.01
0x40f788 30 0.01
0x40f790 30 0.01
0x40f798 30 0.01
0x40f7a0 30 0.01
0x40f7a8 30 0.01
0x40f7b0 30 0.01
0x40f7e0 30 0.01
0x40f7e8 30 0.01
0x40f7f0 30 0.01
0x40f7f8 30 0.01
0x40f800 30 0.01
0x40f808 30 0.01
0x40f810 30 0.01
0x40f818 1 0.00
0x40f820 1 0.00
0x40f828 1 0.00
0x40f830 1 0.00
0x40f838 29 0.01
0x40f840 29 0.01
0x40f848 29 0.01
0x40f850 29 0.01
0x40f858 29 0.01
0x40f860 26 0.01
0x40f868 30 0.01
0x40f870 30 0.01
0x40f878 30 0.01
0x40f880 30 0.01
0x40f888 30 0.01
0x40f890 30 0.01
0x40f898 30 0.01
0x40f8a0 30 0.01
0x40f8a8 30 0.01
0x40f8b0 30 0.01
0x40f8b8 30 0.01
0x40f8c0 30 0.01
0x40f8c8 30 0.01
0x40f8d0 30 0.01
0x40f8d8 30 0.01
0x40f8e0 30 0.01
0x40f8e8 30 0.01
0x40f8f0 30 0.01
0x40f8f8 30 0.01
0x40f900 30 0.01
0x40f908 30 0.01
0x40f910 30 0.01
0x40f918 30 0.01
0x40f920 30 0.01
0x40f928 30 0.01
0x40f930 30 0.01
0x40f938 30 0.01
0x40f940 30 0.01
0x40f948 30 0.01
0x40f950 20 0.01
0x40f958 20 0.01
0x40f960 20 0.01
0x40f968 20 0.01
0x40f970 20 0.01
0x40f978 20 0.01
0x40f980 30 0.01
0x40f988 30 0.01
0x40f990 30 0.01
0x40f998 30 0.01
0x40f9a0 30 0.01
0x40f9a8 30 0.01
0x40f9b0 30 0.01
0x40f9b8 30 0.01
0x40f9c0 30 0.01
0x40f9c8 30 0.01
0x40f9d0 30 0.01
0x40f9d8 30 0.01
0x40f9e0 30 0.01
0x40f9e8 30 0.01
0x40f9f0 30 0.01
0x40f9f8 30 0.01
0x40fa00 30 0.01
0x40fa08 30 0.01
0x40fa10 30 0.01
0x40fa18 30 0.01
0x40fa20 30 0.01
0x40fa28 25 0.01
0x40fa30 25 0.01
0x40fab0 30 0.01
0x40fab8 30 0.01
0x40fac0 30 0.01
0x40fac8 30 0.01
0x40fad0 30 0.01
0x40fad8 30 0.01
0x40fae0 30 0.01
0x40fae8 30 0.01
0x40faf0 38 0.02
0x40faf8 38 0.02
0x40fb00 38 0.02
0x40fb08 38 0.02
0x40fb10 13 0.01
0x40fb18 5 0.00
0x40fb20 30 0.01
0x40fb28 30 0.01
0x40fb30 5 0.00
0x40fb38 5 0.00
0x40fb40 30 0.01
0x40fb48 30 0.01
0x40fb50 30 0.01
0x40fb58 30 0.01
0x40fb60 30 0.01
0x40fb68 30 0.01
0x40fb70 30 0.01
0x40fb78 30 0.01
0x40fb80 30 0.01
0x40fb88 30 0.01
0x40fb90 30 0.01
0x40fb98 30 0.01
0x40fba0 30 0.01
0x40fba8 30 0.01
0x40fbb0 30 0.01
0x40fbb8 30 0.01
0x40fbc0 30 0.01
0x40fbc8 30 0.01
0x40fc00 30 0.01
0x40fc08 30 0.01
0x40fc10 30 0.01
0x40fc18 30 0.01
0x40fc20 30 0.01
0x40fc28 30 0.01
0x40fc30 30 0.01
0x40fc38 30 0.01
0x40fc40 1 0.00
0x40fc48 1 0.00
0x40fc50 1 0.00
0x40fc58 1 0.00
0x40fc60 1 0.00
0x40fc68 1 0.00
0x40fc70 1 0.00
0x40fc78 30 0.01
0x40fc80 30 0.01
0x40fc88 30 0.01
0x40fc90 30 0.01
0x40fc98 30 0.01
0x40fca0 30 0.01
0x40fca8 30 0.01
0x40fcb0 1 0.00
0x40fcb8 1 0.00
0x40fcc0 1 0.00
0x40fcc8 1 0.00
0x40fcd0 1 0.00
0x40fcd8 1 0.00
0x40fce0 1 0.00
0x40fce8 30 0.01
0x40fcf0 30 0.01
0x40fcf8 30 0.01
0x40fd00 30 0.01
0x40fd08 30 0.01
0x40fd10 25 0.01
0x40fd18 17 0.01
0x40fd20 17 0.01
0x40fd28 17 0.01
0x40fd30 17 0.01
0x40fd38 7 0.00
0x40fd40 30 0.01
0x40fd48 30 0.01
0x40fd50 30 0.01
0x40fd58 30 0.01
0x40fd60 30 0.01
0x40fd80 30 0.01
0x40fd88 30 0.01
0x40fd90 30 0.01
0x40fd98 30 0.01
0x40fda0 30 0.01
0x40fda8 30 0.01
0x40fdb0 30 0.01
0x40fdb8 30 0.01
0x40fdc0 30 0.01
0x40fdc8 30 0.01
0x40fdd0 30 0.01
0x40fdd8 30 0.01
0x40fde0 11 0.01
0x40fde8 11 0.01
0x40fdf0 11 0.01
0x40fdf8 11 0.01
0x40fe00 11 0.01
0x40fe08 11 0.01
0x40fe10 11 0.01
0x40fe18 11 0.01
0x40fe20 11 0.01
0x40fe28 11 0.01
0x40fe30 11 0.01
0x40fe98 11 0.01
0x40fea0 11 0.01
0x40fea8 11 0.01
0x40feb0 11 0.01
0x40fef0 11 0.01
0x40fef8 30 0.01
0x40ff00 30 0.01
0x40ff08 30 0.01
0x40ff10 30 0.01
0x40ff18 30 0.01
0x40ff20 30 0.01
0x40ff28 30 0.01
0x40ff30 30 0.01
0x40ff38 30 0.01
0x40ff40 30 0.01
0x40ff48 30 0.01
0x40ff50 30 0.01
0x40ff58 23 0.01
0x40ff60 23 0.01
0x40ff68 23 0.01
0x40ff70 23 0.01
0x40ff78 23 0.01
0x40ff80 22 0.01
0x40ffc8 1 0.00
0x40ffd0 30 0.01
0x40ffd8 30 0.01
0x40ffe0 30 0.01
0x40ffe8 23 0.01
0x40fff0 23 0.01
0x40fff8 22 0.01
0x410000 22 0.01
[...]
0x411680 1 0.00
0x411688 1 0.00
0x411690 1 0.00
0x411698 1 0.00
0x4116a0 1 0.00
0x4116a8 1 0.00
0x4116b0 1 0.00
0x411718 1 0.00
0x411720 1 0.00
0x411728 1 0.00
0x411730 1 0.00
0x411770 1 0.00
0x411778 97 0.05
0x411780 97 0.05
0x411788 97 0.05
0x411790 97 0.05
0x411798 97 0.05
0x4117a0 97 0.05
0x4117a8 97 0.05
0x4117b0 97 0.05
0x4117b8 97 0.05
0x4117c0 97 0.05
0x4117c8 97 0.05
0x4117d0 97 0.05
0x4117d8 91 0.04
0x4117e0 91 0.04
0x4117e8 91 0.04
0x4117f0 91 0.04
0x4117f8 91 0.04
0x411800 83 0.04
0x411848 8 0.00
0x411850 97 0.05
0x411858 97 0.05
0x411860 97 0.05
0x411868 83 0.04
0x411870 83 0.04
0x411878 75 0.04
0x411880 75 0.04
0x411888 75 0.04
0x411890 14 0.01
0x411898 14 0.01
0x4118a0 8 0.00
0x4118a8 8 0.00
0x411908 8 0.00
0x411910 8 0.00
0x411918 8 0.00
0x411920 22 0.01
0x411928 22 0.01
0x411930 75 0.04
0x411938 97 0.05
0x411940 97 0.05
0x411948 97 0.05
0x411950 14 0.01
0x411958 14 0.01
0x411960 14 0.01
0x411968 14 0.01
0x411970 97 0.05
0x411978 97 0.05
0x411980 97 0.05
0x411988 97 0.05
0x411990 28 0.01
0x411998 28 0.01
0x4119a0 2 0.00
0x4119a8 6 0.00
0x4119b0 6 0.00
0x4119b8 6 0.00
0x4119c0 6 0.00
0x4119c8 6 0.00
0x4119d0 6 0.00
0x4119d8 28 0.01
0x4119e0 28 0.01
0x4119e8 28 0.01
0x4119f0 28 0.01
0x4119f8 28 0.01
0x411a00 7 0.00
0x411a08 7 0.00
0x411a10 21 0.01
0x411a18 21 0.01
0x411a20 21 0.01
0x411a28 21 0.01
0x411a30 7 0.00
0x411a38 7 0.00
0x411a40 3 0.00
0x411a48 3 0.00
0x411a50 3 0.00
0x411a58 3 0.00
0x411a60 7 0.00
0x411a68 7 0.00
0x411a70 7 0.00
0x411a78 7 0.00
0x411a80 7 0.00
0x411a88 7 0.00
0x411a90 7 0.00
0x411a98 7 0.00
0x411aa0 30 0.01
0x411aa8 30 0.01
0x411ab0 30 0.01
0x411ab8 30 0.01
0x411ac0 30 0.01
0x411ac8 30 0.01
0x411ad0 30 0.01
0x411ad8 30 0.01
0x411ae0 30 0.01
0x411ae8 26 0.01
0x411af0 26 0.01
0x411af8 26 0.01
0x411b00 26 0.01
0x411b08 4 0.00
0x411b10 4 0.00
0x411b18 4 0.00
0x411b20 30 0.01
0x411b28 30 0.01
0x411b30 30 0.01
0x411b38 30 0.01
0x411b40 30 0.01
0x411b48 30 0.01
0x411b50 30 0.01
0x411b58 30 0.01
0x411b60 30 0.01
0x411b68 30 0.01
0x411b70 30 0.01
0x411b78 30 0.01
0x411b80 29 0.01
0x411b88 29 0.01
0x411b90 29 0.01
0x411b98 29 0.01
0x411ba0 29 0.01
0x411ba8 2 0.00
0x411bb0 2 0.00
0x411bb8 8 0.00
0x411bc0 8 0.00
0x411bc8 8 0.00
0x411bd0 8 0.00
0x411bd8 8 0.00
0x411be0 8 0.00
0x411be8 8 0.00
0x411bf0 8 0.00
0x411c18 8 0.00
0x411c20 8 0.00
0x411c28 8 0.00
0x411c30 8 0.00
0x411c38 8 0.00
0x411c40 8 0.00
0x411c48 8 0.00
0x411c50 8 0.00
0x411c58 30 0.01
0x411c60 30 0.01
0x411c68 4 0.00
0x411c70 4 0.00
0x411c78 4 0.00
0x411c80 4 0.00
0x411c88 4 0.00
0x411c90 4 0.00
0x411c98 4 0.00
0x411cc0 26 0.01
0x411cc8 26 0.01
0x411cd0 26 0.01
0x411cd8 26 0.01
0x411d38 26 0.01
0x411d40 26 0.01
0x411d78 4 0.00
0x411d80 4 0.00
0x411d88 4 0.00
0x411db8 4 0.00
0x411dc0 4 0.00
0x411dc8 4 0.00
0x411dd0 30 0.01
0x411dd8 30 0.01
0x411de0 30 0.01
0x411de8 30 0.01
0x411df0 30 0.01
0x411df8 30 0.01
0x411e00 30 0.01
0x411ee0 30 0.01
0x411ee8 30 0.01
0x411ef0 30 0.01
0x411ef8 30 0.01
0x411f00 30 0.01
0x411f08 30 0.01
0x411f10 30 0.01
0x411f18 30 0.01
0x411f20 30 0.01
0x411f28 30 0.01
0x411f30 30 0.01
0x411f38 30 0.01
0x411f40 30 0.01
0x411f48 30 0.01
0x411f50 30 0.01
0x411f58 1 0.00
0x411f60 1 0.00
0x411f68 1 0.00
0x411f70 1 0.00
0x411f78 1 0.00
0x411f80 1 0.00
0x411f88 1 0.00
0x411f90 5 0.00
0x411f98 5 0.00
0x411fa0 5 0.00
0x411fa8 5 0.00
0x411fb0 5 0.00
0x411fb8 5 0.00
0x411fc0 5 0.00
0x411fc8 5 0.00
0x411ff0 5 0.00
0x411ff8 5 0.00
0x412000 5 0.00
0x412008 5 0.00
0x412010 5 0.00
0x412018 5 0.00
0x412020 5 0.00
0x412028 5 0.00
0x412030 30 0.01
0x412038 30 0.01
0x412040 30 0.01
0x412048 30 0.01
0x412050 30 0.01
0x412058 30 0.01
0x412060 30 0.01
0x412068 30 0.01
0x412070 30 0.01
0x412078 30 0.01
0x412080 30 0.01
0x412088 30 0.01
0x412090 30 0.01
0x412098 30 0.01
0x4120a0 30 0.01
0x4120a8 30 0.01
0x4124a0 2 0.00
0x4124a8 2 0.00
0x4124b0 2 0.00
0x4124b8 2 0.00
0x4124c0 2 0.00
0x4124c8 2 0.00
0x4124d0 2 0.00
0x4124d8 2 0.00
0x4124e0 2 0.00
0x4124e8 2 0.00
0x4124f0 2 0.00
0x4124f8 2 0.00
0x412500 2 0.00
0x412508 2 0.00
0x412510 2 0.00
0x412518 2 0.00
0x412520 2 0.00
0x412528 2 0.00
0x412558 2 0.00
0x412560 2 0.00
0x412568 2 0.00
0x412570 2 0.00
0x412578 2 0.00
0x412580 2 0.00
0x412588 2 0.00
0x412590 2 0.00
0x412598 2 0.00
0x4125a0 2 0.00
0x4125a8 2 0.00
0x4125b0 2 0.00
0x4125b8 2 0.00
0x4125c0 2 0.00
0x4125c8 2 0.00
0x4125d0 2 0.00
0x4125d8 2 0.00
0x4125e0 2 0.00
0x4125e8 2 0.00
0x4125f0 2 0.00
0x4125f8 2 0.00
0x412600 2 0.00
0x412608 2 0.00
0x412610 2 0.00
0x412618 2 0.00
0x412620 2 0.00
0x412628 2 0.00
0x412630 2 0.00
0x412638 2 0.00
0x412640 2 0.00
0x412648 2 0.00
0x412650 2 0.00
0x412658 2 0.00
0x412660 2 0.00
0x412668 2 0.00
0x412670 2 0.00
0x412678 2 0.00
0x412680 2 0.00
0x412688 2 0.00
0x412690 2 0.00
0x412698 2 0.00
0x4126a0 2 0.00
0x4126b0 3 0.00
0x4126b8 3 0.00
0x4126c0 3 0.00
0x4126c8 3 0.00
0x4126d0 3 0.00
0x4126d8 3 0.00
0x4126e0 3 0.00
0x4126e8 3 0.00
0x4126f0 3 0.00
0x4126f8 3 0.00
0x412700 4 0.00
0x412708 4 0.00
0x412710 4 0.00
0x412718 4 0.00
0x412720 4 0.00
0x412728 4 0.00
0x412730 4 0.00
0x412738 4 0.00
0x412740 4 0.00
0x412748 4 0.00
0x412778 4 0.00
0x412780 4 0.00
0x412788 4 0.00
0x412790 390 0.18
0x412798 390 0.18
0x4127a0 390 0.18
0x4127a8 390 0.18
0x4127b0 390 0.18
0x4127b8 390 0.18
0x4127c0 390 0.18
0x4127c8 390 0.18
0x4127d0 390 0.18
0x4127d8 390 0.18
0x4127e0 390 0.18
0x4127e8 390 0.18
0x4127f0 4 0.00
0x4127f8 4 0.00
0x412800 4 0.00
0x412808 12 0.01
0x412810 12 0.01
0x412818 12 0.01
0x412820 12 0.01
0x412828 4 0.00
0x412830 4 0.00
0x412858 4 0.00
0x412860 4 0.00
0x412870 278 0.13
0x412878 278 0.13
0x412880 278 0.13
0x412888 278 0.13
0x412890 278 0.13
0x412898 278 0.13
0x4128a0 278 0.13
0x4128a8 278 0.13
0x4128b0 278 0.13
0x4128b8 278 0.13
0x4128c0 278 0.13
0x4128c8 278 0.13
0x4128d0 4 0.00
0x4128d8 4 0.00
0x4128e0 4 0.00
0x4128e8 4 0.00
0x4128f0 4 0.00
0x412928 4 0.00
0x412930 4 0.00
0x412938 4 0.00
0x412940 4 0.00
0x412948 4 0.00
0x412950 4 0.00
0x412958 4 0.00
0x412980 4 0.00
0x412988 4 0.00
0x412990 4 0.00
0x412998 4 0.00
0x4129a0 4 0.00
0x4129a8 278 0.13
0x4129b0 278 0.13
0x4129b8 1960 0.92
0x4129c0 1960 0.92
0x4129c8 1960 0.92
0x4129d0 1960 0.92
0x4129d8 1960 0.92
0x4129e0 1960 0.92
0x4129e8 278 0.13
0x4129f0 278 0.13
0x4129f8 278 0.13
0x412a00 278 0.13
0x412a08 278 0.13
0x412a10 278 0.13
0x412a18 278 0.13
0x412a20 278 0.13
0x412a30 2 0.00
0x412a38 2 0.00
0x412a40 2 0.00
0x412a48 2 0.00
0x412a50 2 0.00
0x412a58 2 0.00
0x412a60 2 0.00
0x412a68 2 0.00
0x412a70 2 0.00
0x412a78 2 0.00
0x412a80 2 0.00
0x412a88 1 0.00
0x412a90 1 0.00
0x412a98 1 0.00
0x412aa0 1 0.00
0x412aa8 1 0.00
0x412ab0 1 0.00
0x412ab8 1 0.00
0x412ac0 1 0.00
0x412ae8 1 0.00
0x412af0 1 0.00
0x412af8 1 0.00
0x412b00 1 0.00
0x412b08 1 0.00
0x412b10 1 0.00
0x412b18 1 0.00
0x412b20 1 0.00
0x412b28 1 0.00
0x412b30 1 0.00
0x412b38 1 0.00
0x412b40 2 0.00
0x412b48 2 0.00
0x412b50 2 0.00
0x412b58 2 0.00
0x412b60 2 0.00
0x412bc0 22 0.01
0x412bc8 22 0.01
0x412bd0 22 0.01
0x412bd8 22 0.01
0x412be0 22 0.01
0x412c40 2 0.00
0x412c48 2 0.00
0x412c50 2 0.00
0x412c58 2 0.00
0x412c60 2 0.00
0x412cf0 30 0.01
0x412cf8 30 0.01
0x412d00 30 0.01
0x412d08 109 0.05
0x412d10 109 0.05
0x412d18 85 0.04
0x412d20 85 0.04
0x412d28 85 0.04
0x412d30 85 0.04
0x412d38 85 0.04
0x412d40 30 0.01
0x412d48 30 0.01
0x412d50 30 0.01
0x412d58 30 0.01
0x412d60 30 0.01
0x412d68 30 0.01
0x412d70 30 0.01
0x412d78 30 0.01
0x412d80 30 0.01
0x412d88 11 0.01
0x412d90 11 0.01
0x412d98 11 0.01
0x412da0 11 0.01
0x412da8 11 0.01
0x412db0 11 0.01
0x412db8 11 0.01
0x412dc0 11 0.01
0x412dc8 11 0.01
0x412dd0 11 0.01
0x412dd8 11 0.01
0x412de0 11 0.01
0x412e60 11 0.01
0x412e68 11 0.01
0x412e70 11 0.01
0x412e78 30 0.01
0x412e80 30 0.01
0x412e88 47 0.02
0x412e90 47 0.02
0x412ea8 47 0.02
0x412eb0 77 0.04
0x412eb8 77 0.04
0x412ec0 77 0.04
0x412ec8 30 0.01
0x412ed0 30 0.01
0x412ed8 30 0.01
0x412ee0 30 0.01
0x412ee8 30 0.01
0x412ef0 30 0.01
0x412ef8 30 0.01
0x412f00 30 0.01
0x412f08 30 0.01
0x412f10 30 0.01
0x412f18 30 0.01
0x412f20 30 0.01
0x412f28 30 0.01
0x412f30 30 0.01
0x412f38 30 0.01
0x412f40 30 0.01
0x412f48 30 0.01
0x412f50 30 0.01
0x412f58 30 0.01
0x412f60 30 0.01
0x412fb0 30 0.01
0x412fb8 30 0.01
0x412fc0 30 0.01
0x412fc8 30 0.01
0x412fd0 30 0.01
0x412fe0 499 0.23
0x412fe8 499 0.23
0x412ff0 499 0.23
0x412ff8 499 0.23
0x413000 499 0.23
0x413008 499 0.23
0x413010 499 0.23
0x413018 499 0.23
0x413020 499 0.23
0x413028 499 0.23
0x413030 499 0.23
0x413038 484 0.23
0x413040 484 0.23
0x413048 484 0.23
0x413050 508 0.24
0x413058 508 0.24
0x413060 508 0.24
0x413068 508 0.24
0x413070 508 0.24
0x413078 508 0.24
0x413080 508 0.24
0x413088 508 0.24
0x413090 508 0.24
0x413098 508 0.24
0x4130a0 499 0.23
0x4130a8 499 0.23
0x4130b0 499 0.23
0x4130b8 499 0.23
0x4130c0 499 0.23
0x4130c8 499 0.23
0x4130d0 418 0.20
0x4130d8 418 0.20
0x4130e0 418 0.20
0x4130e8 418 0.20
0x4130f0 418 0.20
0x4130f8 431 0.20
0x413100 431 0.20
0x413108 431 0.20
0x413110 16 0.01
0x413118 16 0.01
0x413120 16 0.01
0x413128 16 0.01
0x413130 3 0.00
0x413138 3 0.00
0x413140 415 0.19
0x413148 415 0.19
0x413150 415 0.19
0x413158 232 0.11
0x413160 415 0.19
0x413168 418 0.20
0x413170 257 0.12
0x413178 257 0.12
0x413180 257 0.12
0x413188 257 0.12
0x413190 257 0.12
0x4131a8 257 0.12
0x4131b0 257 0.12
0x4131b8 257 0.12
0x4131c0 257 0.12
0x4131c8 257 0.12
0x4131d0 257 0.12
0x4131d8 257 0.12
0x4131e0 246 0.12
0x4131e8 246 0.12
0x4131f0 246 0.12
0x4131f8 246 0.12
0x413200 246 0.12
0x413208 246 0.12
0x413210 246 0.12
0x413218 246 0.12
0x413250 246 0.12
0x413258 246 0.12
0x413260 246 0.12
0x413268 246 0.12
0x413270 246 0.12
0x413278 246 0.12
0x413280 246 0.12
0x413288 246 0.12
0x413290 246 0.12
0x413298 246 0.12
0x4132a0 246 0.12
0x4132a8 246 0.12
0x4132b0 246 0.12
0x4132c0 246 0.12
0x4132c8 246 0.12
0x4132d0 246 0.12
0x4132d8 246 0.12
0x4132e0 246 0.12
0x4132e8 246 0.12
0x4132f0 246 0.12
0x4132f8 246 0.12
0x413340 246 0.12
0x413348 246 0.12
0x413350 246 0.12
0x413360 246 0.12
0x413368 246 0.12
0x413370 246 0.12
0x413378 246 0.12
0x413380 246 0.12
0x413388 246 0.12
0x413390 246 0.12
0x4133d0 246 0.12
0x4133d8 246 0.12
0x4133e0 246 0.12
0x4133e8 246 0.12
0x4133f0 246 0.12
0x4133f8 246 0.12
0x413400 246 0.12
0x413408 246 0.12
0x413410 246 0.12
0x413418 246 0.12
0x413420 246 0.12
0x413428 246 0.12
0x413430 246 0.12
0x413438 246 0.12
0x413440 290 0.14
0x413448 290 0.14
0x413450 290 0.14
0x413458 290 0.14
0x413460 290 0.14
0x413468 290 0.14
0x413470 290 0.14
0x413478 290 0.14
0x413480 290 0.14
0x413488 290 0.14
0x413490 290 0.14
0x413498 290 0.14
0x4134a0 290 0.14
0x4134a8 290 0.14
0x4134b0 290 0.14
0x4134b8 290 0.14
0x4134c0 42 0.02
0x4134c8 42 0.02
0x4134d0 42 0.02
0x4134d8 42 0.02
0x4134e0 42 0.02
0x4134e8 42 0.02
0x413500 290 0.14
0x413508 290 0.14
0x413510 128 0.06
0x413518 128 0.06
0x413520 290 0.14
0x413528 290 0.14
0x413530 290 0.14
0x413538 290 0.14
0x413540 290 0.14
0x413548 290 0.14
0x413550 290 0.14
0x413558 246 0.12
0x413560 246 0.12
0x413568 246 0.12
0x413570 246 0.12
0x413578 246 0.12
0x413580 246 0.12
0x413588 246 0.12
0x413590 246 0.12
0x413598 246 0.12
0x4135a0 246 0.12
0x4135a8 246 0.12
0x4135b0 246 0.12
0x4135b8 246 0.12
0x4135c0 246 0.12
0x4135c8 57 0.03
0x4135d0 57 0.03
0x4135d8 57 0.03
0x4135e0 57 0.03
0x4135e8 57 0.03
0x4135f0 57 0.03
0x413608 246 0.12
0x413610 246 0.12
0x413618 80 0.04
0x413620 80 0.04
0x413628 246 0.12
0x413630 246 0.12
0x413638 246 0.12
0x413928 11 0.01
0x413930 11 0.01
0x413938 11 0.01
0x413940 11 0.01
0x413948 11 0.01
0x413950 11 0.01
0x413958 11 0.01
0x413960 11 0.01
0x413998 11 0.01
0x4139a0 11 0.01
0x4139a8 11 0.01
0x4139b0 11 0.01
0x4139b8 11 0.01
0x4139c0 11 0.01
0x4139c8 11 0.01
0x4139d0 11 0.01
0x4139d8 11 0.01
0x4139e0 11 0.01
0x4139e8 11 0.01
0x4139f0 11 0.01
0x4139f8 11 0.01
0x413a00 11 0.01
0x413a08 11 0.01
0x413a10 11 0.01
0x413c10 11 0.01
0x413c18 11 0.01
0x413c20 11 0.01
0x413c30 11 0.01
0x413c38 11 0.01
0x413c40 11 0.01
0x413c48 11 0.01
0x413c50 11 0.01
0x413c58 11 0.01
0x413c60 11 0.01
0x413c68 11 0.01
0x413c70 11 0.01
0x413c78 11 0.01
0x413c80 11 0.01
0x413cc8 11 0.01
0x413cd0 11 0.01
0x413cd8 11 0.01
0x413ce8 11 0.01
0x413cf0 11 0.01
0x413cf8 11 0.01
0x413d00 11 0.01
0x413d08 11 0.01
0x413d10 11 0.01
0x413d18 11 0.01
0x413d20 11 0.01
0x413d28 11 0.01
0x413d30 11 0.01
0x413d78 11 0.01
0x413d80 11 0.01
0x413d88 11 0.01
0x413d90 11 0.01
0x413d98 11 0.01
0x413da0 11 0.01
0x413fc8 257 0.12
0x413fd0 257 0.12
0x413fd8 257 0.12
0x413fe0 257 0.12
0x414000 533 0.25
0x414008 533 0.25
0x414010 533 0.25
0x414018 533 0.25
0x414020 1026 0.48
0x414028 1026 0.48
0x414030 1026 0.48
0x414038 1026 0.48
0x414040 1026 0.48
0x414048 1026 0.48
0x414050 1026 0.48
0x414058 1026 0.48
0x414060 1026 0.48
0x414068 1026 0.48
0x414070 1026 0.48
0x414078 1026 0.48
0x414080 533 0.25
0x414088 533 0.25
0x414090 61 0.03
0x414098 61 0.03
0x4140a0 61 0.03
0x4140a8 87 0.04
0x4140b0 87 0.04
0x4140b8 87 0.04
0x4140c0 87 0.04
0x4140c8 87 0.04
0x4140d0 87 0.04
0x4140d8 87 0.04
0x4140e0 87 0.04
0x4140e8 87 0.04
0x4140f0 87 0.04
0x4140f8 87 0.04
0x414100 87 0.04
0x414108 87 0.04
0x414110 61 0.03
0x414118 61 0.03
0x414120 61 0.03
0x414130 127 0.06
0x414138 127 0.06
0x414140 127 0.06
0x414148 127 0.06
0x414150 127 0.06
0x414158 127 0.06
0x414160 127 0.06
0x414168 127 0.06
0x414170 127 0.06
0x414178 127 0.06
0x414180 127 0.06
0x414188 127 0.06
0x414190 127 0.06
0x414198 127 0.06
0x4141a0 127 0.06
0x4141a8 127 0.06
0x4141b0 127 0.06
0x4141b8 127 0.06
0x4141c0 127 0.06
0x4141c8 127 0.06
0x4141d0 127 0.06
0x4141e8 127 0.06
0x4141f0 127 0.06
0x4141f8 2 0.00
0x414478 125 0.06
0x414480 125 0.06
0x414488 125 0.06
0x414490 125 0.06
0x414498 125 0.06
0x4144a0 125 0.06
0x4144a8 125 0.06
0x4144b0 125 0.06
0x4144b8 125 0.06
0x4144c0 11 0.01
0x4144c8 11 0.01
0x4144d0 3 0.00
0x4144d8 3 0.00
0x4144e0 11 0.01
0x4144e8 11 0.01
0x4144f0 11 0.01
0x4144f8 11 0.01
0x414500 11 0.01
0x414508 11 0.01
0x414510 11 0.01
0x414518 125 0.06
0x414520 125 0.06
0x414528 125 0.06
0x414530 104 0.05
0x414538 104 0.05
0x414540 104 0.05
0x414548 104 0.05
0x414550 104 0.05
0x4145d0 104 0.05
0x4145d8 104 0.05
0x4145e0 104 0.05
0x4145f0 104 0.05
0x4145f8 104 0.05
0x414600 104 0.05
0x414608 104 0.05
0x414610 104 0.05
0x414618 104 0.05
0x414620 104 0.05
0x414628 104 0.05
0x414630 104 0.05
0x414638 104 0.05
0x414680 104 0.05
0x414688 104 0.05
0x414690 104 0.05
0x4146a0 104 0.05
0x4146a8 104 0.05
0x4146b0 104 0.05
0x4146b8 104 0.05
0x4146c0 104 0.05
0x4146c8 104 0.05
0x4146d0 104 0.05
0x4146d8 104 0.05
0x4146e0 104 0.05
0x414728 104 0.05
0x414730 104 0.05
0x414738 104 0.05
0x414740 104 0.05
0x414748 104 0.05
0x414750 104 0.05
0x414758 104 0.05
0x414760 104 0.05
0x414768 104 0.05
0x414770 104 0.05
0x414778 9 0.00
0x414780 9 0.00
0x4147c8 104 0.05
0x4147d0 104 0.05
0x4147d8 104 0.05
0x4147e0 104 0.05
0x4147e8 104 0.05
0x4147f0 104 0.05
0x4147f8 104 0.05
0x414800 104 0.05
0x414808 104 0.05
0x414810 125 0.06
0x414818 125 0.06
0x414820 125 0.06
0x414828 2 0.00
0x414830 2 0.00
0x414838 2 0.00
0x414840 2 0.00
0x414848 2 0.00
0x414850 2 0.00
0x414858 2 0.00
0x414860 2 0.00
0x414868 2 0.00
0x414870 1 0.00
0x414878 1 0.00
0x414880 1 0.00
0x414888 1 0.00
0x414890 1 0.00
0x414898 1 0.00
0x4148a0 1 0.00
0x4148a8 1 0.00
0x4148b0 1 0.00
0x4148b8 1 0.00
0x4148c0 1 0.00
0x4148c8 1 0.00
0x4148d0 1 0.00
0x4148d8 1 0.00
0x4148e0 1 0.00
0x4148e8 2 0.00
0x4148f0 2 0.00
0x4148f8 2 0.00
0x414c08 127 0.06
0x414c10 127 0.06
0x414c18 127 0.06
0x414c20 127 0.06
0x414c28 127 0.06
0x414c30 127 0.06
0x414c38 127 0.06
0x414c40 127 0.06
0x414c48 127 0.06
0x414c50 127 0.06
0x414c58 127 0.06
0x414c60 127 0.06
0x414c68 127 0.06
0x414c70 127 0.06
0x414c78 127 0.06
0x414c80 127 0.06
0x414c88 127 0.06
0x414c90 127 0.06
0x414c98 127 0.06
0x414ca0 127 0.06
0x414ca8 127 0.06
0x414cb0 127 0.06
0x414cb8 127 0.06
0x414cc0 127 0.06
0x414cc8 131 0.06
0x414cd0 131 0.06
0x414cd8 131 0.06
0x414ce0 131 0.06
0x414ce8 131 0.06
0x414cf0 131 0.06
0x414cf8 131 0.06
0x414d00 131 0.06
0x414d08 131 0.06
0x414d10 131 0.06
0x414d18 131 0.06
0x414d20 127 0.06
0x414d28 127 0.06
0x414d30 127 0.06
0x414d38 127 0.06
0x414d40 127 0.06
0x414d48 127 0.06
0x414d50 128 0.06
0x414d58 128 0.06
0x414d60 128 0.06
0x414d68 250 0.12
0x414d70 250 0.12
0x414d78 250 0.12
0x414d80 250 0.12
0x414d88 250 0.12
0x414d90 250 0.12
0x414d98 250 0.12
0x414da0 250 0.12
0x414da8 250 0.12
0x414db0 250 0.12
0x414db8 250 0.12
0x414dc0 250 0.12
0x414dc8 250 0.12
0x414dd0 128 0.06
0x414dd8 128 0.06
0x414de0 128 0.06
0x414f40 3 0.00
0x414f48 3 0.00
0x414f50 3 0.00
0x414f58 3 0.00
0x414f70 3 0.00
0x414f78 3 0.00
0x414f80 3 0.00
0x414f88 3 0.00
0x414f90 3 0.00
0x414f98 3 0.00
0x414fa0 3 0.00
0x414fa8 3 0.00
0x414fb0 3 0.00
0x414fb8 3 0.00
0x414fc0 3 0.00
0x414fd0 4 0.00
0x414fd8 4 0.00
0x414fe0 4 0.00
0x414fe8 4 0.00
0x414ff0 4 0.00
0x414ff8 4 0.00
0x415000 4 0.00
0x415008 4 0.00
0x415060 4 0.00
0x415068 4 0.00
0x415070 4 0.00
0x415078 4 0.00
0x415080 4 0.00
0x415180 4 0.00
0x415188 4 0.00
0x415190 4 0.00
0x415198 4 0.00
0x4151a0 4 0.00
0x4151a8 4 0.00
0x4151b0 4 0.00
0x4151b8 4 0.00
0x4151c0 4 0.00
0x4151c8 4 0.00
0x4151d0 4 0.00
0x4151d8 4 0.00
0x415830 1 0.00
0x415838 1 0.00
0x415840 1 0.00
0x415848 1 0.00
0x415850 1 0.00
0x415860 1 0.00
0x415868 1 0.00
0x415870 1 0.00
0x415878 1 0.00
0x415880 1 0.00
0x415888 1 0.00
0x415890 1 0.00
0x415898 1 0.00
0x4158a0 1 0.00
0x4158a8 1 0.00
0x4158b0 1 0.00
0x4158b8 1 0.00
0x4158c0 1 0.00
0x4158c8 1 0.00
0x415990 3 0.00
0x415998 3 0.00
0x4159a0 3 0.00
0x4159b0 3 0.00
0x4159b8 3 0.00
0x4159c0 3 0.00
0x4159c8 3 0.00
0x4159d0 3 0.00
0x4159d8 3 0.00
0x415a00 1 0.00
0x415a08 1 0.00
0x415a10 1 0.00
0x415a18 1 0.00
0x415a20 1 0.00
0x415a30 3 0.00
0x415a38 3 0.00
0x415a40 3 0.00
0x415a48 3 0.00
0x415a50 3 0.00
0x415a58 3 0.00
0x415a60 3 0.00
0x415a68 3 0.00
0x415a70 3 0.00
0x415a80 3 0.00
0x415a88 3 0.00
0x415a90 3 0.00
0x415a98 3 0.00
0x415aa0 3 0.00
0x415aa8 3 0.00
0x415ab0 3 0.00
0x415ac0 6 0.00
0x415ac8 6 0.00
0x415ad0 6 0.00
0x415ad8 6 0.00
0x415ae0 6 0.00
0x415ae8 6 0.00
0x415af0 6 0.00
0x415af8 6 0.00
0x415b00 6 0.00
0x415b08 6 0.00
0x415b10 6 0.00
0x415b18 6 0.00
0x415b20 6 0.00
0x415b28 6 0.00
0x415b30 6 0.00
0x415b38 6 0.00
0x415b40 6 0.00
0x415b48 6 0.00
0x415b80 6 0.00
0x415b88 6 0.00
0x415b90 6 0.00
0x415b98 6 0.00
0x415ba0 6 0.00
0x415ba8 6 0.00
0x415bb0 6 0.00
0x415bb8 6 0.00
0x415bc0 6 0.00
0x415bc8 6 0.00
0x415bd0 6 0.00
0x415bd8 6 0.00
0x415be0 6 0.00
0x415be8 6 0.00
0x415bf0 6 0.00
0x415bf8 6 0.00
0x415c00 6 0.00
0x415c10 6 0.00
0x415c18 6 0.00
0x415c20 6 0.00
0x415c28 6 0.00
0x415c30 6 0.00
0x415c38 6 0.00
0x415c40 6 0.00
0x415c48 6 0.00
0x415c50 6 0.00
0x415c58 6 0.00
0x415ca0 6 0.00
0x415ca8 6 0.00
0x415cb0 6 0.00
0x415cc0 6 0.00
0x415cc8 6 0.00
0x415cd0 6 0.00
0x415cd8 6 0.00
0x415ce0 6 0.00
0x415ce8 6 0.00
0x415cf0 6 0.00
0x415cf8 6 0.00
0x415d00 6 0.00
0x415d48 6 0.00
0x415d50 6 0.00
0x415d58 6 0.00
0x415d60 6 0.00
0x415d68 6 0.00
0x416180 6 0.00
0x416188 3 0.00
0x416190 3 0.00
0x416198 3 0.00
0x416598 3 0.00
0x4165a0 6 0.00
0x4165a8 6 0.00
0x4165b0 6 0.00
0x4165b8 6 0.00
0x4165c0 6 0.00
0x4165c8 6 0.00
0x4165d0 6 0.00
0x4165d8 6 0.00
sim_text_addr_prof.end_dist

ld_text_base             0x00400000 # program text (code) segment base
ld_text_size                  91744 # program text (code) size in bytes
ld_data_base             0x10000000 # program initialized data segment base
ld_data_size                  13028 # program init'ed `.data' and uninit'ed `.bss' size in bytes
ld_stack_base            0x7fffc000 # program stack segment base (highest address in stack)
ld_stack_size                 16384 # program initial stack size
ld_prog_entry            0x00400140 # program entry point (initial PC)
ld_environ_base          0x7fff8000 # program environment base address address
ld_target_big_endian              0 # target executable endian-ness, non-zero if big endian
mem.page_count                   33 # total number of pages allocated
mem.page_mem                   132k # total size of memory pages allocated
mem.ptab_misses                  34 # total first level page table misses
mem.ptab_accesses           1546713 # total page table accesses
mem.ptab_miss_rate           0.0000 # first level page table miss rate

